
OS:Version,
  {11d7fd94-383e-4921-8131-2cde34939bd8}, !- Handle
  0.10.0;                                 !- Version Identifier

OS:Site,
  {fa5586c0-f7ca-4cb9-becc-999f8d819fbd}, !- Handle
  USA IL-CHICAGO-OHARE,                   !- Name
  41.77,                                  !- Latitude {deg}
  -87.75,                                 !- Longitude {deg}
  -6,                                     !- Time Zone {hr}
  190,                                    !- Elevation {m}
  City;                                   !- Terrain

OS:SimulationControl,
  {fb07ae14-a422-437f-8d2c-0386b6c9e51b}, !- Handle
  Yes,                                    !- Do Zone Sizing Calculation
  Yes,                                    !- Do System Sizing Calculation
  Yes,                                    !- Do Plant Sizing Calculation
  Yes,                                    !- Run Simulation for Sizing Periods
  Yes,                                    !- Run Simulation for Weather File Run Periods
  0.04,                                   !- Loads Convergence Tolerance Value
  0.2,                                    !- Temperature Convergence Tolerance Value {deltaC}
  FullExterior,                           !- Solar Distribution
  25,                                     !- Maximum Number of Warmup Days
  6;                                      !- Minimum Number of Warmup Days

OS:Schedule:Compact,
  {42e191c2-b9e8-4cad-8e69-cb8f911dc8e6}, !- Handle
  ALWAYS_ON,                              !- Name
  {79d973dc-a48b-4b77-97b0-bb032fe6a349}, !- Schedule Type Limits Name
  Through: 12/31,                         !- Field 1
  For: AllDays,                           !- Field 2
  Until: 24:00,                           !- Field 3
  1;                                      !- Field 4

OS:ScheduleTypeLimits,
  {79d973dc-a48b-4b77-97b0-bb032fe6a349}, !- Handle
  On/Off,                                 !- Name
  0,                                      !- Lower Limit Value {BasedOnField A4}
  1,                                      !- Upper Limit Value {BasedOnField A4}
  DISCRETE,                               !- Numeric Type
  Availability;                           !- Unit Type

OS:Building,
  {db2d32b4-3a68-44e7-98a3-bd776bc7883e}, !- Handle
  Ref Bldg Medium Office New2004_v1.3_5.0, !- Name
  ,                                       !- Building Type
  0,                                      !- North Axis {deg}
  ,                                       !- Nominal Floor to Floor Height {m}
  ,                                       !- Space Type Name
  ,                                       !- Default Construction Set Name
  ;                                       !- Default Schedule Set Name

OS:DesignSpecification:OutdoorAir,
  {b00a27e3-521d-489b-8c6a-3b55f9bfaba8}, !- Handle
  SZ DSOA Perimeter_mid_ZN_1,             !- Name
  ,                                       !- Outdoor Air Method
  0.0125,                                 !- Outdoor Air Flow per Person {m3/s-person}
  ,                                       !- Outdoor Air Flow per Floor Area {m3/s-m2}
  ,                                       !- Outdoor Air Flow Rate {m3/s}
  ,                                       !- Outdoor Air Flow Air Changes per Hour {1/hr}
  ;                                       !- Outdoor Air Flow Rate Fraction Schedule Name

OS:Surface,
  {7234207d-3e5e-4a05-bef5-da0897d4bb1b}, !- Handle
  Perimeter_top_ZN_3_Wall_North,          !- Name
  Wall,                                   !- Surface Type
  {7e1450c9-f803-4625-a239-0419fd98dc1e}, !- Construction Name
  {13d9fb8c-3877-4054-989f-5e3c09acf4ed}, !- Space Name
  Outdoors,                               !- Outside Boundary Condition
  ,                                       !- Outside Boundary Condition Object
  SunExposed,                             !- Sun Exposure
  WindExposed,                            !- Wind Exposure
  ,                                       !- View Factor to Ground
  ,                                       !- Number of Vertices
  49.911, 4.5732, 2.7432,                 !- X,Y,Z Vertex 1 {m}
  49.911, 4.5732, 0,                      !- X,Y,Z Vertex 2 {m}
  0, 4.5732, 0,                           !- X,Y,Z Vertex 3 {m}
  0, 4.5732, 2.7432;                      !- X,Y,Z Vertex 4 {m}

OS:Construction,
  {7e1450c9-f803-4625-a239-0419fd98dc1e}, !- Handle
  Steel Frame Non-res Ext Wall,           !- Name
  ,                                       !- Surface Rendering Name
  {70cfacdc-b3f7-4fde-a9b0-92730469956b}, !- Layer 1
  {bc10e122-9bf6-4a1d-88fa-f66a04478bbd}, !- Layer 2
  {e16a6da0-79e9-4b34-bf4e-3cfe7646bf1b}; !- Layer 3

OS:Material,
  {70cfacdc-b3f7-4fde-a9b0-92730469956b}, !- Handle
  Wood Siding,                            !- Name
  MediumSmooth,                           !- Roughness
  0.01,                                   !- Thickness {m}
  0.11,                                   !- Conductivity {W/m-K}
  544.62,                                 !- Density {kg/m3}
  1210,                                   !- Specific Heat {J/kg-K}
  0.9,                                    !- Thermal Absorptance
  0.78,                                   !- Solar Absorptance
  0.78;                                   !- Visible Absorptance

OS:Material,
  {bc10e122-9bf6-4a1d-88fa-f66a04478bbd}, !- Handle
  Steel Frame NonRes Wall Insulation,     !- Name
  MediumRough,                            !- Roughness
  0.0870564552646045,                     !- Thickness {m}
  0.049,                                  !- Conductivity {W/m-K}
  265,                                    !- Density {kg/m3}
  836.8,                                  !- Specific Heat {J/kg-K}
  0.9,                                    !- Thermal Absorptance
  0.7,                                    !- Solar Absorptance
  0.7;                                    !- Visible Absorptance

OS:Material,
  {e16a6da0-79e9-4b34-bf4e-3cfe7646bf1b}, !- Handle
  1/2IN Gypsum,                           !- Name
  Smooth,                                 !- Roughness
  0.0127,                                 !- Thickness {m}
  0.16,                                   !- Conductivity {W/m-K}
  784.9,                                  !- Density {kg/m3}
  830,                                    !- Specific Heat {J/kg-K}
  0.9,                                    !- Thermal Absorptance
  0.92,                                   !- Solar Absorptance
  0.92;                                   !- Visible Absorptance

OS:ThermalZone,
  {9adba31e-b89a-4fe6-89db-4aa56a6af05e}, !- Handle
  Perimeter_top_ZN_3 Thermal Zone,        !- Name
  1,                                      !- Multiplier
  ,                                       !- Ceiling Height {m}
  ,                                       !- Volume {m3}
  ,                                       !- Floor Area {m2}
  ,                                       !- Zone Inside Convection Algorithm
  ,                                       !- Zone Outside Convection Algorithm
  ,                                       !- Zone Conditioning Equipment List Name
  {37db1542-6c58-435c-b776-2bad5528c55c}, !- Zone Air Inlet Port List
  {6e353acc-9336-4c3d-9cfc-8ecac9c000fd}, !- Zone Air Exhaust Port List
  {74b27855-ddbd-451b-8669-885ff15897bd}, !- Zone Air Node Name
  {b16f86ea-b192-4b32-8875-292a072c621d}, !- Zone Return Air Node Name
  ,                                       !- Primary Daylighting Control Name
  ,                                       !- Fraction of Zone Controlled by Primary Daylighting Control
  ,                                       !- Secondary Daylighting Control Name
  ,                                       !- Fraction of Zone Controlled by Secondary Daylighting Control
  ,                                       !- Illuminance Map Name
  ,                                       !- Group Rendering Name
  {532d6123-67dc-4c2c-8de7-cc559884d00d}, !- Thermostat Name
  No;                                     !- Use Ideal Air Loads

OS:Node,
  {fcd271ac-9559-4d81-84cc-d1da91025442}, !- Handle
  {424cc859-172b-4954-82d7-ab75a5866269}, !- Name
  {74b27855-ddbd-451b-8669-885ff15897bd}, !- Inlet Port
  ;                                       !- Outlet Port

OS:Connection,
  {74b27855-ddbd-451b-8669-885ff15897bd}, !- Handle
  {67265359-5230-4877-b346-98ef616cc277}, !- Name
  {9adba31e-b89a-4fe6-89db-4aa56a6af05e}, !- Source Object
  11,                                     !- Outlet Port
  {fcd271ac-9559-4d81-84cc-d1da91025442}, !- Target Object
  2;                                      !- Inlet Port

OS:PortList,
  {37db1542-6c58-435c-b776-2bad5528c55c}, !- Handle
  {455e0082-eb05-40a5-b46b-c612c7ee817f}, !- Name
  {9f769867-ca55-47a8-887d-ae1bf0456703}; !- Port 1

OS:PortList,
  {6e353acc-9336-4c3d-9cfc-8ecac9c000fd}, !- Handle
  {55714ef1-8400-4047-bbfe-78789ff7f65c}; !- Name

OS:Sizing:Zone,
  {7b34276e-9e30-495e-9b00-2bc3a1f6602b}, !- Handle
  {9adba31e-b89a-4fe6-89db-4aa56a6af05e}, !- Zone or ZoneList Name
  12.8,                                   !- Zone Cooling Design Supply Air Temperature {C}
  50,                                     !- Zone Heating Design Supply Air Temperature {C}
  0.0085,                                 !- Zone Cooling Design Supply Air Humidity Ratio {kg-H2O/kg-air}
  0.008,                                  !- Zone Heating Design Supply Air Humidity Ratio {kg-H2O/kg-air}
  ,                                       !- Zone Heating Sizing Factor
  ,                                       !- Zone Cooling Sizing Factor
  DesignDay,                              !- Cooling Design Air Flow Method
  ,                                       !- Cooling Design Air Flow Rate {m3/s}
  ,                                       !- Cooling Minimum Air Flow per Zone Floor Area {m3/s-m2}
  ,                                       !- Cooling Minimum Air Flow {m3/s}
  ,                                       !- Cooling Minimum Air Flow Fraction
  DesignDay,                              !- Heating Design Air Flow Method
  ,                                       !- Heating Design Air Flow Rate {m3/s}
  ,                                       !- Heating Maximum Air Flow per Zone Floor Area {m3/s-m2}
  ,                                       !- Heating Maximum Air Flow {m3/s}
  ,                                       !- Heating Maximum Air Flow Fraction
  ,                                       !- Design Zone Air Distribution Effectiveness in Cooling Mode
  0.0125;                                 !- Design Zone Air Distribution Effectiveness in Heating Mode

OS:ZoneHVAC:EquipmentList,
  {b3901825-9cc8-4504-afaa-1c483202a0bd}, !- Handle
  {9c0a88db-f9fd-4e23-bad9-5019bb94a024}, !- Name
  {9adba31e-b89a-4fe6-89db-4aa56a6af05e}, !- Thermal Zone
  {5e434d14-86a1-45ad-a9b8-85c4aa733227}, !- Zone Equipment 1
  1,                                      !- Zone Equipment Cooling Sequence 1
  1;                                      !- Zone Equipment Heating or No-Load Sequence 1

OS:Space,
  {13d9fb8c-3877-4054-989f-5e3c09acf4ed}, !- Handle
  Perimeter_top_ZN_3,                     !- Name
  ,                                       !- Space Type Name
  ,                                       !- Default Construction Set Name
  ,                                       !- Default Schedule Set Name
  -0,                                     !- Direction of Relative North {deg}
  0,                                      !- X Origin {m}
  28.7006,                                !- Y Origin {m}
  7.9248,                                 !- Z Origin {m}
  {31efc4de-cc39-4051-8db8-500409e69168}, !- Building Story Name
  {9adba31e-b89a-4fe6-89db-4aa56a6af05e}, !- Thermal Zone Name
  Yes,                                    !- Part of Total Floor Area
  {0e779d39-9075-42a5-843c-585bfd10f69f}; !- Design Specification Outdoor Air Object Name

OS:ThermostatSetpoint:DualSetpoint,
  {532d6123-67dc-4c2c-8de7-cc559884d00d}, !- Handle
  {fd899237-934d-4f2c-b96e-0714fb36e6ea}, !- Name
  {60bc085f-f303-4949-99ad-764bb9c5f15b}, !- Heating Setpoint Temperature Schedule Name
  {10846442-c5a1-4c85-83ec-11a4d547a0b4}; !- Cooling Setpoint Temperature Schedule Name

OS:Schedule:Compact,
  {60bc085f-f303-4949-99ad-764bb9c5f15b}, !- Handle
  HTGSETP_SCH,                            !- Name
  {b2e52942-a1d3-4cee-8528-91248a55bd21}, !- Schedule Type Limits Name
  Through: 12/31,                         !- Field 1
  For: Weekdays,                          !- Field 2
  Until: 06:00,                           !- Field 3
  15.6,                                   !- Field 4
  Until: 22:00,                           !- Field 5
  21.0,                                   !- Field 6
  Until: 24:00,                           !- Field 7
  15.6,                                   !- Field 8
  For SummerDesignDay,                    !- Field 9
  Until: 24:00,                           !- Field 10
  15.6,                                   !- Field 11
  For: Saturday,                          !- Field 12
  Until: 06:00,                           !- Field 13
  15.6,                                   !- Field 14
  Until: 18:00,                           !- Field 15
  21.0,                                   !- Field 16
  Until: 24:00,                           !- Field 17
  15.6,                                   !- Field 18
  For: WinterDesignDay,                   !- Field 19
  Until: 24:00,                           !- Field 20
  21.0,                                   !- Field 21
  For: AllOtherDays,                      !- Field 22
  Until: 24:00,                           !- Field 23
  15.6;                                   !- Field 24

OS:ScheduleTypeLimits,
  {b2e52942-a1d3-4cee-8528-91248a55bd21}, !- Handle
  Temperature,                            !- Name
  -60,                                    !- Lower Limit Value {BasedOnField A4}
  200,                                    !- Upper Limit Value {BasedOnField A4}
  CONTINUOUS,                             !- Numeric Type
  Temperature;                            !- Unit Type

OS:Schedule:Compact,
  {10846442-c5a1-4c85-83ec-11a4d547a0b4}, !- Handle
  CLGSETP_SCH,                            !- Name
  {b2e52942-a1d3-4cee-8528-91248a55bd21}, !- Schedule Type Limits Name
  Through: 12/31,                         !- Field 1
  For: Weekdays SummerDesignDay,          !- Field 2
  Until: 06:00,                           !- Field 3
  26.7,                                   !- Field 4
  Until: 22:00,                           !- Field 5
  24.0,                                   !- Field 6
  Until: 24:00,                           !- Field 7
  26.7,                                   !- Field 8
  For: Saturday,                          !- Field 9
  Until: 06:00,                           !- Field 10
  26.7,                                   !- Field 11
  Until: 18:00,                           !- Field 12
  24.0,                                   !- Field 13
  Until: 24:00,                           !- Field 14
  26.7,                                   !- Field 15
  For WinterDesignDay,                    !- Field 16
  Until: 24:00,                           !- Field 17
  26.7,                                   !- Field 18
  For: AllOtherDays,                      !- Field 19
  Until: 24:00,                           !- Field 20
  26.7;                                   !- Field 21

OS:Surface,
  {9edca1ef-ec14-44f3-88be-d11e9e9338e6}, !- Handle
  Perimeter_mid_ZN_4_Wall_East,           !- Name
  Wall,                                   !- Surface Type
  {811097f8-b01f-4317-8233-c84cc1d9599b}, !- Construction Name
  {53429fc4-8ac9-4950-80fc-110066982183}, !- Space Name
  Surface,                                !- Outside Boundary Condition
  {802e5be1-2766-4581-8dfa-f15a2568e8e1}, !- Outside Boundary Condition Object
  NoSun,                                  !- Sun Exposure
  NoWind,                                 !- Wind Exposure
  ,                                       !- View Factor to Ground
  ,                                       !- Number of Vertices
  4.5732, 4.5732, 2.7432,                 !- X,Y,Z Vertex 1 {m}
  4.5732, 4.5732, 0,                      !- X,Y,Z Vertex 2 {m}
  4.5732, 28.7006, 0,                     !- X,Y,Z Vertex 3 {m}
  4.5732, 28.7006, 2.7432;                !- X,Y,Z Vertex 4 {m}

OS:Construction,
  {811097f8-b01f-4317-8233-c84cc1d9599b}, !- Handle
  int-walls,                              !- Name
  ,                                       !- Surface Rendering Name
  {e16a6da0-79e9-4b34-bf4e-3cfe7646bf1b}, !- Layer 1
  {e16a6da0-79e9-4b34-bf4e-3cfe7646bf1b}; !- Layer 2

OS:ThermalZone,
  {444abceb-a189-41a8-98dc-137cdaa9db19}, !- Handle
  Perimeter_mid_ZN_4 Thermal Zone,        !- Name
  1,                                      !- Multiplier
  ,                                       !- Ceiling Height {m}
  ,                                       !- Volume {m3}
  ,                                       !- Floor Area {m2}
  ,                                       !- Zone Inside Convection Algorithm
  ,                                       !- Zone Outside Convection Algorithm
  ,                                       !- Zone Conditioning Equipment List Name
  {81aeaeaf-18b8-46b1-b131-8dc14a4b2e8c}, !- Zone Air Inlet Port List
  {d40bf228-2492-472e-91dd-1d7aa14fe904}, !- Zone Air Exhaust Port List
  {6aa4644f-9a17-4426-9de0-fa8534056e98}, !- Zone Air Node Name
  {07e18e49-5cb7-4bd3-9aac-814963b4092f}, !- Zone Return Air Node Name
  ,                                       !- Primary Daylighting Control Name
  ,                                       !- Fraction of Zone Controlled by Primary Daylighting Control
  ,                                       !- Secondary Daylighting Control Name
  ,                                       !- Fraction of Zone Controlled by Secondary Daylighting Control
  ,                                       !- Illuminance Map Name
  ,                                       !- Group Rendering Name
  {74bcb5c2-2a3c-478d-b093-ca6f10073827}, !- Thermostat Name
  No;                                     !- Use Ideal Air Loads

OS:Node,
  {0e988887-0ba3-424d-881b-a6b61ed74a0a}, !- Handle
  {ecaa4008-16cb-4813-bd41-2af87a143a7a}, !- Name
  {6aa4644f-9a17-4426-9de0-fa8534056e98}, !- Inlet Port
  ;                                       !- Outlet Port

OS:Connection,
  {6aa4644f-9a17-4426-9de0-fa8534056e98}, !- Handle
  {1d7cf46e-f1b4-44fa-9acc-2f938696ccad}, !- Name
  {444abceb-a189-41a8-98dc-137cdaa9db19}, !- Source Object
  11,                                     !- Outlet Port
  {0e988887-0ba3-424d-881b-a6b61ed74a0a}, !- Target Object
  2;                                      !- Inlet Port

OS:PortList,
  {81aeaeaf-18b8-46b1-b131-8dc14a4b2e8c}, !- Handle
  {281c6109-531b-4d03-9c42-e5c6d4b68e1d}, !- Name
  {23a480ba-f44f-465a-8832-829bd4be3d63}; !- Port 1

OS:PortList,
  {d40bf228-2492-472e-91dd-1d7aa14fe904}, !- Handle
  {e67be0a9-3953-4c09-bfc6-eeecd50de4cd}; !- Name

OS:Sizing:Zone,
  {98d5f8e4-15f6-41cd-b5b6-eb1754acf90b}, !- Handle
  {444abceb-a189-41a8-98dc-137cdaa9db19}, !- Zone or ZoneList Name
  12.8,                                   !- Zone Cooling Design Supply Air Temperature {C}
  50,                                     !- Zone Heating Design Supply Air Temperature {C}
  0.0085,                                 !- Zone Cooling Design Supply Air Humidity Ratio {kg-H2O/kg-air}
  0.008,                                  !- Zone Heating Design Supply Air Humidity Ratio {kg-H2O/kg-air}
  ,                                       !- Zone Heating Sizing Factor
  ,                                       !- Zone Cooling Sizing Factor
  DesignDay,                              !- Cooling Design Air Flow Method
  ,                                       !- Cooling Design Air Flow Rate {m3/s}
  ,                                       !- Cooling Minimum Air Flow per Zone Floor Area {m3/s-m2}
  ,                                       !- Cooling Minimum Air Flow {m3/s}
  ,                                       !- Cooling Minimum Air Flow Fraction
  DesignDay,                              !- Heating Design Air Flow Method
  ,                                       !- Heating Design Air Flow Rate {m3/s}
  ,                                       !- Heating Maximum Air Flow per Zone Floor Area {m3/s-m2}
  ,                                       !- Heating Maximum Air Flow {m3/s}
  ,                                       !- Heating Maximum Air Flow Fraction
  ,                                       !- Design Zone Air Distribution Effectiveness in Cooling Mode
  0.0125;                                 !- Design Zone Air Distribution Effectiveness in Heating Mode

OS:ZoneHVAC:EquipmentList,
  {9f81ce5e-fbea-47a7-bf1a-fc3da50c9294}, !- Handle
  {d6e04e6b-e277-426a-9b1e-d73158bd1dc4}, !- Name
  {444abceb-a189-41a8-98dc-137cdaa9db19}, !- Thermal Zone
  {b47c585e-d0e3-440d-8b4f-52b3c92fc63c}, !- Zone Equipment 1
  1,                                      !- Zone Equipment Cooling Sequence 1
  1;                                      !- Zone Equipment Heating or No-Load Sequence 1

OS:Space,
  {53429fc4-8ac9-4950-80fc-110066982183}, !- Handle
  Perimeter_mid_ZN_4,                     !- Name
  ,                                       !- Space Type Name
  ,                                       !- Default Construction Set Name
  ,                                       !- Default Schedule Set Name
  -0,                                     !- Direction of Relative North {deg}
  0,                                      !- X Origin {m}
  0,                                      !- Y Origin {m}
  3.9624,                                 !- Z Origin {m}
  {b5f9b332-c51b-49b6-a797-62e347ed13e7}, !- Building Story Name
  {444abceb-a189-41a8-98dc-137cdaa9db19}, !- Thermal Zone Name
  Yes,                                    !- Part of Total Floor Area
  {cb6a7462-3c01-4d11-b188-5e6b7f7f35e1}; !- Design Specification Outdoor Air Object Name

OS:ThermostatSetpoint:DualSetpoint,
  {74bcb5c2-2a3c-478d-b093-ca6f10073827}, !- Handle
  {874fe664-9c2e-4202-bb1c-7417835485c1}, !- Name
  {60bc085f-f303-4949-99ad-764bb9c5f15b}, !- Heating Setpoint Temperature Schedule Name
  {10846442-c5a1-4c85-83ec-11a4d547a0b4}; !- Cooling Setpoint Temperature Schedule Name

OS:RunPeriodControl:SpecialDays,
  {8e31ab71-6f07-4084-a524-d38cff24999c}, !- Handle
  New Years Day,                          !- Name
  January 1,                              !- Start Date
  1,                                      !- Duration {days}
  Holiday;                                !- Special Day Type

OS:YearDescription,
  {14fe6ce8-c7e4-4b1c-8f62-8cce697ca1c1}; !- Handle

OS:Surface,
  {10cfd238-53dc-4f10-90b7-adc2f62b4a38}, !- Handle
  MidFloor_Plenum_Ceiling_4,              !- Name
  RoofCeiling,                            !- Surface Type
  {9bece941-b1d8-403d-8bbe-aa4058e538f6}, !- Construction Name
  {78272082-fa05-457f-80c2-eeb6ac46c7e0}, !- Space Name
  Surface,                                !- Outside Boundary Condition
  {95d3bf9b-48a8-488b-9a8e-ec0fb3cb6b55}, !- Outside Boundary Condition Object
  NoSun,                                  !- Sun Exposure
  NoWind,                                 !- Wind Exposure
  ,                                       !- View Factor to Ground
  ,                                       !- Number of Vertices
  0, 0, 1.2192,                           !- X,Y,Z Vertex 1 {m}
  4.5732, 4.5732, 1.2192,                 !- X,Y,Z Vertex 2 {m}
  4.5732, 28.7006, 1.2192,                !- X,Y,Z Vertex 3 {m}
  0, 33.2738, 1.2192;                     !- X,Y,Z Vertex 4 {m}

OS:Construction,
  {9bece941-b1d8-403d-8bbe-aa4058e538f6}, !- Handle
  INT-FLOOR-UNDERSIDE,                    !- Name
  ,                                       !- Surface Rendering Name
  {f3bde67e-46c8-494a-ad59-31b375a5221c}, !- Layer 1
  {77b25377-d80d-4b73-b2ac-5353c8dac30a}; !- Layer 2

OS:Material:NoMass,
  {f3bde67e-46c8-494a-ad59-31b375a5221c}, !- Handle
  CP02 CARPET PAD,                        !- Name
  VeryRough,                              !- Roughness
  0.2165,                                 !- Thermal Resistance {m2-K/W}
  0.9,                                    !- Thermal Absorptance
  0.7,                                    !- Solar Absorptance
  0.8;                                    !- Visible Absorptance

OS:Material,
  {77b25377-d80d-4b73-b2ac-5353c8dac30a}, !- Handle
  MAT-CC05 4 HW CONCRETE,                 !- Name
  Rough,                                  !- Roughness
  0.1016,                                 !- Thickness {m}
  1.311,                                  !- Conductivity {W/m-K}
  2240,                                   !- Density {kg/m3}
  836.8,                                  !- Specific Heat {J/kg-K}
  0.9,                                    !- Thermal Absorptance
  0.7,                                    !- Solar Absorptance
  0.7;                                    !- Visible Absorptance

OS:ThermalZone,
  {16940e89-a5c5-44c7-92ee-79ea724304b2}, !- Handle
  MidFloor_Plenum Thermal Zone,           !- Name
  1,                                      !- Multiplier
  ,                                       !- Ceiling Height {m}
  ,                                       !- Volume {m3}
  ,                                       !- Floor Area {m2}
  ,                                       !- Zone Inside Convection Algorithm
  ,                                       !- Zone Outside Convection Algorithm
  ,                                       !- Zone Conditioning Equipment List Name
  {acbbbd83-14e7-47bb-bd64-8c4824cda58b}, !- Zone Air Inlet Port List
  {75954a66-1e37-46d5-8817-2990d287dd2b}, !- Zone Air Exhaust Port List
  {6ccef8b3-6693-4525-bdb5-9893c127e3be}, !- Zone Air Node Name
  ,                                       !- Zone Return Air Node Name
  ,                                       !- Primary Daylighting Control Name
  ,                                       !- Fraction of Zone Controlled by Primary Daylighting Control
  ,                                       !- Secondary Daylighting Control Name
  ,                                       !- Fraction of Zone Controlled by Secondary Daylighting Control
  ,                                       !- Illuminance Map Name
  ,                                       !- Group Rendering Name
  ,                                       !- Thermostat Name
  No;                                     !- Use Ideal Air Loads

OS:Node,
  {d4ae5d8d-706e-4da9-b86c-d4f8412fe0a6}, !- Handle
  {d05d6432-3ee2-474a-87bf-e3ff472d29a3}, !- Name
  {6ccef8b3-6693-4525-bdb5-9893c127e3be}, !- Inlet Port
  ;                                       !- Outlet Port

OS:Connection,
  {6ccef8b3-6693-4525-bdb5-9893c127e3be}, !- Handle
  {ce1dd8d7-ccf0-4c42-961e-c96bf13b7d80}, !- Name
  {16940e89-a5c5-44c7-92ee-79ea724304b2}, !- Source Object
  11,                                     !- Outlet Port
  {d4ae5d8d-706e-4da9-b86c-d4f8412fe0a6}, !- Target Object
  2;                                      !- Inlet Port

OS:PortList,
  {acbbbd83-14e7-47bb-bd64-8c4824cda58b}, !- Handle
  {790e67ea-6679-4f75-87d5-9a6765c5a688}; !- Name

OS:PortList,
  {75954a66-1e37-46d5-8817-2990d287dd2b}, !- Handle
  {613c2e19-3621-467d-a42d-3f6b55bf3da8}; !- Name

OS:Sizing:Zone,
  {17217641-76e4-4de1-a588-a1abb4afd0bf}, !- Handle
  {16940e89-a5c5-44c7-92ee-79ea724304b2}, !- Zone or ZoneList Name
  14,                                     !- Zone Cooling Design Supply Air Temperature {C}
  40,                                     !- Zone Heating Design Supply Air Temperature {C}
  0.0085,                                 !- Zone Cooling Design Supply Air Humidity Ratio {kg-H2O/kg-air}
  0.008,                                  !- Zone Heating Design Supply Air Humidity Ratio {kg-H2O/kg-air}
  ,                                       !- Zone Heating Sizing Factor
  ,                                       !- Zone Cooling Sizing Factor
  DesignDay,                              !- Cooling Design Air Flow Method
  ,                                       !- Cooling Design Air Flow Rate {m3/s}
  ,                                       !- Cooling Minimum Air Flow per Zone Floor Area {m3/s-m2}
  ,                                       !- Cooling Minimum Air Flow {m3/s}
  ,                                       !- Cooling Minimum Air Flow Fraction
  DesignDay,                              !- Heating Design Air Flow Method
  ,                                       !- Heating Design Air Flow Rate {m3/s}
  ,                                       !- Heating Maximum Air Flow per Zone Floor Area {m3/s-m2}
  ,                                       !- Heating Maximum Air Flow {m3/s}
  ,                                       !- Heating Maximum Air Flow Fraction
  ,                                       !- Design Zone Air Distribution Effectiveness in Cooling Mode
  ;                                       !- Design Zone Air Distribution Effectiveness in Heating Mode

OS:ZoneHVAC:EquipmentList,
  {8a2c624f-b005-43c1-95d8-643b971cf6d0}, !- Handle
  {c3fe756e-07f4-4078-b73c-8ba36d8c6c18}, !- Name
  {16940e89-a5c5-44c7-92ee-79ea724304b2}; !- Thermal Zone

OS:Space,
  {78272082-fa05-457f-80c2-eeb6ac46c7e0}, !- Handle
  MidFloor_Plenum,                        !- Name
  ,                                       !- Space Type Name
  ,                                       !- Default Construction Set Name
  ,                                       !- Default Schedule Set Name
  -0,                                     !- Direction of Relative North {deg}
  0,                                      !- X Origin {m}
  0,                                      !- Y Origin {m}
  6.7056,                                 !- Z Origin {m}
  {519b981e-975e-4e78-8f71-7a534a29bc0d}, !- Building Story Name
  {16940e89-a5c5-44c7-92ee-79ea724304b2}, !- Thermal Zone Name
  No;                                     !- Part of Total Floor Area

OS:Surface,
  {1cfcfed0-0b11-49cf-a0af-c188ff3a2e4c}, !- Handle