
OS:Version,
  {53c81d10-5c7c-4acf-97a2-76c395d444af}, !- Handle
  1.1.2;                                  !- Version Identifier

OS:SimulationControl,
  {af7fa581-5b53-4647-b58d-2b8ecd987681}, !- Handle
  Yes,                                    !- Do Zone Sizing Calculation
  Yes,                                    !- Do System Sizing Calculation
  ,                                       !- Do Plant Sizing Calculation
  No,                                     !- Run Simulation for Sizing Periods
  Yes;                                    !- Run Simulation for Weather File Run Periods

OS:Timestep,
  {73f4acc8-d4a4-4cb7-90b0-ee152d751e05}, !- Handle
  6;                                      !- Number of Timesteps per Hour

OS:RunPeriod,
  {c97454ce-1646-40e4-8767-86d8f1d9c5a4}, !- Handle
  Run Period 1,                           !- Name
  1,                                      !- Begin Month
  1,                                      !- Begin Day of Month
  12,                                     !- End Month
  31,                                     !- End Day of Month
  No,                                     !- Use Weather File Holidays and Special Days
  No,                                     !- Use Weather File Daylight Saving Period
  No,                                     !- Apply Weekend Holiday Rule
  Yes,                                    !- Use Weather File Rain Indicators
  Yes,                                    !- Use Weather File Snow Indicators
  1;                                      !- Number of Times Runperiod to be Repeated

OS:SurfaceConvectionAlgorithm:Inside,
  {d5582760-0344-416d-bd18-0307afa4c139}, !- Handle
  TARP;                                   !- Algorithm

OS:SurfaceConvectionAlgorithm:Outside,
  {39bd198d-0b80-4270-8219-9416bd6678e8}, !- Handle
  DOE-2;                                  !- Algorithm

OS:HeatBalanceAlgorithm,
  {d1005c3b-3bc7-414a-a878-8a3f7dd01c9f}, !- Handle
  ConductionTransferFunction,             !- Algorithm
  200;                                    !- Surface Temperature Upper Limit {F}

OS:ZoneAirHeatBalanceAlgorithm,
  {224843a1-8147-4315-b637-b6d6f7b0fbea}, !- Handle
  AnalyticalSolution;                     !- Algorithm

OS:ConvergenceLimits,
  {d105e8ae-b91f-4357-9826-e35b7181d2a7}; !- Handle

OS:ShadowCalculation,
  {6fd6744c-60e7-410c-81e2-ba9621b97f17}, !- Handle
  7,                                      !- Calculation Frequency
  15000;                                  !- Maximum Figures in Shadow Overlap Calculations

OS:Site,
  {5441d414-213b-428d-a7df-d40c141c07b2}, !- Handle
  Site 1,                                 !- Name
  41.77,                                  !- Latitude {deg}
  -87.75,                                 !- Longitude {deg}
  -6,                                     !- Time Zone {hr}
  190,                                    !- Elevation {m}
  ;                                       !- Terrain

OS:Site:GroundTemperature:BuildingSurface,
  {18a7f057-b3ab-4cc8-a8a5-6f3d88c5a130}, !- Handle
  19.527,                                 !- January Ground Temperature {C}
  19.502,                                 !- February Ground Temperature {C}
  19.536,                                 !- March Ground Temperature {C}
  19.598,                                 !- April Ground Temperature {C}
  20.002,                                 !- May Ground Temperature {C}
  21.64,                                  !- June Ground Temperature {C}
  22.225,                                 !- July Ground Temperature {C}
  22.375,                                 !- August Ground Temperature {C}
  21.449,                                 !- September Ground Temperature {C}
  20.121,                                 !- October Ground Temperature {C}
  19.802,                                 !- November Ground Temperature {C}
  19.633;                                 !- December Ground Temperature {C}

OS:Site:WaterMainsTemperature,
  {be4c0215-4244-478a-b9a4-ae40696dec2f}, !- Handle
  Correlation,                            !- Calculation Method
  ,                                       !- Temperature Schedule Name
  9.69,                                   !- Annual Average Outdoor Air Temperature {C}
  28.1;                                   !- Maximum Difference In Monthly Average Outdoor Air Temperatures {deltaC}

OS:SizingPeriod:DesignDay,
  {ddebcb4b-fc76-4692-8b71-6c14f828c5f5}, !- Handle
  Sizing Period Design Day 1,             !- Name
  -20.6,                                  !- Maximum Dry-Bulb Temperature {C}
  0,                                      !- Daily Dry-Bulb Temperature Range {deltaC}
  -20.6,                                  !- Humidity Indicating Conditions at Maximum Dry-Bulb {BasedOnField A3}
  99063,                                  !- Barometric Pressure {Pa}
  4.9,                                    !- Wind Speed {m/s}
  270,                                    !- Wind Direction {deg}
  0,                                      !- Sky Clearness
  0,                                      !- Rain Indicator
  0,                                      !- Snow Indicator
  21,                                     !- Day of Month
  1,                                      !- Month
  WinterDesignDay,                        !- Day Type
  0,                                      !- Daylight Saving Time Indicator
  WetBulb,                                !- Humidity Indicating Type
  ,                                       !- Humidity Indicating Day Schedule Name
  DefaultMultipliers,                     !- Dry-Bulb Temperature Range Modifier Type
  ,                                       !- Dry-Bulb Temperature Range Modifier Schedule Name
  AshraeClearSky;                         !- Solar Model Indicator

OS:SizingPeriod:DesignDay,
  {b0300c08-eb93-4bf7-9a97-f082c5b2aec6}, !- Handle
  Sizing Period Design Day 2,             !- Name
  33.2,                                   !- Maximum Dry-Bulb Temperature {C}
  10.7,                                   !- Daily Dry-Bulb Temperature Range {deltaC}
  23.8,                                   !- Humidity Indicating Conditions at Maximum Dry-Bulb {BasedOnField A3}
  99063,                                  !- Barometric Pressure {Pa}
  5.3,                                    !- Wind Speed {m/s}
  230,                                    !- Wind Direction {deg}
  1,                                      !- Sky Clearness
  0,                                      !- Rain Indicator
  0,                                      !- Snow Indicator
  21,                                     !- Day of Month
  7,                                      !- Month
  SummerDesignDay,                        !- Day Type
  0,                                      !- Daylight Saving Time Indicator
  WetBulb,                                !- Humidity Indicating Type
  ,                                       !- Humidity Indicating Day Schedule Name
  DefaultMultipliers,                     !- Dry-Bulb Temperature Range Modifier Type
  ,                                       !- Dry-Bulb Temperature Range Modifier Schedule Name
  AshraeClearSky;                         !- Solar Model Indicator

OS:ScheduleTypeLimits,
  {d1b396f1-9fdb-44a0-a748-b612fd94ffbd}, !- Handle
  Temperature,                            !- Name
  -60,                                    !- Lower Limit Value {BasedOnField A4}
  200,                                    !- Upper Limit Value {BasedOnField A4}
  CONTINUOUS,                             !- Numeric Type
  Temperature;                            !- Unit Type

OS:DefaultScheduleSet,
  {0c1ab439-523a-47f2-81fb-86591799c4a1}, !- Handle
  Default Schedules,                      !- Name
  ,                                       !- Hours of Operation Schedule Name
  {0d158abc-c896-4427-8600-c422d3ccf79e}, !- Number of People Schedule Name
  {3825de4d-5b2e-4b47-a43f-2e748992a602}, !- People Activity Level Schedule Name
  {8073ec63-bde9-44ac-ae46-40d43ccc39c3}, !- Lighting Schedule Name
  {fd18a6e6-ee91-4e0b-b138-f1149a42b071}, !- Electric Equipment Schedule Name
  {f2e43709-d768-4037-894a-2559d44dcba9}, !- Gas Equipment Schedule Name
  {09ee3bf4-8b45-4ae2-aafb-77f58ce0083c}, !- Hot Water Equipment Schedule Name
  {4c54dbe6-3574-4284-9b47-f31f96fa2e74}, !- Infiltration Schedule Name
  ,                                       !- Steam Equipment Schedule Name
  ;                                       !- Other Equipment Schedule Name

OS:Schedule:Ruleset,
  {0d158abc-c896-4427-8600-c422d3ccf79e}, !- Handle
  Medium Office Number of People Schedule, !- Name
  {7428c0b9-3b6c-42be-bc18-87eac8736f1f}, !- Schedule Type Limits Name
  {13d43304-c69e-4b0a-b49a-cde8fa1e3d80}, !- Default Day Schedule Name
  {a0bd3647-80f3-4e17-9ccf-7c1ed317455d}; !- Summer Design Day Schedule Name

OS:Schedule:Day,
  {13d43304-c69e-4b0a-b49a-cde8fa1e3d80}, !- Handle
  Medium Office Number of People All Other Days Schedule, !- Name
  {7428c0b9-3b6c-42be-bc18-87eac8736f1f}, !- Schedule Type Limits Name
  ,                                       !- Interpolate to Timestep
  24,                                     !- Hour 1
  0,                                      !- Minute 1
  0;                                      !- Value Until Time 1

OS:Schedule:Day,
  {e2ad71af-f8f3-4ace-8e9e-c30024a77e03}, !- Handle
  Medium Office Number of People Summer Design Day Schedule, !- Name
  ,                                       !- Schedule Type Limits Name
  ,                                       !- Interpolate to Timestep
  6,                                      !- Hour 1
  0,                                      !- Minute 1
  0,                                      !- Value Until Time 1
  22,                                     !- Hour 2
  0,                                      !- Minute 2
  1,                                      !- Value Until Time 2
  24,                                     !- Hour 3
  0,                                      !- Minute 3
  0.05;                                   !- Value Until Time 3

OS:Schedule:Day,
  {a0bd3647-80f3-4e17-9ccf-7c1ed317455d}, !- Handle
  Medium Office Number of People Summer Design Day Schedule 1, !- Name
  {7428c0b9-3b6c-42be-bc18-87eac8736f1f}, !- Schedule Type Limits Name
  ,                                       !- Interpolate to Timestep
  6,                                      !- Hour 1
  0,                                      !- Minute 1
  0,                                      !- Value Until Time 1
  22,                                     !- Hour 2
  0,                                      !- Minute 2
  1,                                      !- Value Until Time 2
  24,                                     !- Hour 3
  0,                                      !- Minute 3
  0.05;                                   !- Value Until Time 3

OS:Schedule:Rule,
  {7ca21c0f-e1a8-4df7-8f88-7affcbf765c9}, !- Handle
  Medium Office Number of People Schedule Weekdays Rule, !- Name
  {0d158abc-c896-4427-8600-c422d3ccf79e}, !- Schedule Ruleset Name
  1,                                      !- Rule Order
  {40dda2bb-65a5-49a9-8228-528f5a0bec9e}, !- Day Schedule Name
  ,                                       !- Apply Sunday
  Yes,                                    !- Apply Monday
  Yes,                                    !- Apply Tuesday
  Yes,                                    !- Apply Wednesday
  Yes,                                    !- Apply Thursday
  Yes;                                    !- Apply Friday

OS:Schedule:Day,
  {40dda2bb-65a5-49a9-8228-528f5a0bec9e}, !- Handle
  Medium Office Number of People Weekdays Schedule, !- Name
  {7428c0b9-3b6c-42be-bc18-87eac8736f1f}, !- Schedule Type Limits Name
  ,                                       !- Interpolate to Timestep
  6,                                      !- Hour 1
  0,                                      !- Minute 1
  0,                                      !- Value Until Time 1
  7,                                      !- Hour 2
  0,                                      !- Minute 2
  0.1,                                    !- Value Until Time 2
  8,                                      !- Hour 3
  0,                                      !- Minute 3
  0.2,                                    !- Value Until Time 3
  12,                                     !- Hour 4
  0,                                      !- Minute 4
  0.95,                                   !- Value Until Time 4
  13,                                     !- Hour 5
  0,                                      !- Minute 5
  0.5,                                    !- Value Until Time 5
  17,                                     !- Hour 6
  0,                                      !- Minute 6
  0.95,                                   !- Value Until Time 6
  18,                                     !- Hour 7
  0,                                      !- Minute 7
  0.7,                                    !- Value Until Time 7
  20,                                     !- Hour 8
  0,                                      !- Minute 8
  0.4,                                    !- Value Until Time 8
  22,                                     !- Hour 9
  0,                                      !- Minute 9
  0.1,                                    !- Value Until Time 9
  24,                                     !- Hour 10
  0,                                      !- Minute 10
  0.05;                                   !- Value Until Time 10

OS:Schedule:Rule,
  {d33f58e3-681a-4fe8-b9e9-94c36dfa9a5f}, !- Handle
  Medium Office Number of People Schedule Saturday Rule, !- Name
  {0d158abc-c896-4427-8600-c422d3ccf79e}, !- Schedule Ruleset Name
  0,                                      !- Rule Order
  {b0e48163-dc51-4dfc-9855-432e0574f270}, !- Day Schedule Name
  ,                                       !- Apply Sunday
  ,                                       !- Apply Monday
  ,                                       !- Apply Tuesday
  ,                                       !- Apply Wednesday
  ,                                       !- Apply Thursday
  ,                                       !- Apply Friday
  Yes;                                    !- Apply Saturday

OS:Schedule:Day,
  {b0e48163-dc51-4dfc-9855-432e0574f270}, !- Handle
  Medium Office Number of People Saturday Schedule, !- Name
  {7428c0b9-3b6c-42be-bc18-87eac8736f1f}, !- Schedule Type Limits Name
  ,                                       !- Interpolate to Timestep
  6,                                      !- Hour 1
  0,                                      !- Minute 1
  0,                                      !- Value Until Time 1
  8,                                      !- Hour 2
  0,                                      !- Minute 2
  0.1,                                    !- Value Until Time 2
  14,                                     !- Hour 3
  0,                                      !- Minute 3
  0.5,                                    !- Value Until Time 3
  17,                                     !- Hour 4
  0,                                      !- Minute 4
  0.1,                                    !- Value Until Time 4
  24,                                     !- Hour 5
  0,                                      !- Minute 5
  0;                                      !- Value Until Time 5

OS:ScheduleTypeLimits,
  {7428c0b9-3b6c-42be-bc18-87eac8736f1f}, !- Handle
  Fractional,                             !- Name
  0,                                      !- Lower Limit Value {BasedOnField A4}
  1,                                      !- Upper Limit Value {BasedOnField A4}
  Continuous;                             !- Numeric Type

OS:Schedule:Ruleset,
  {3825de4d-5b2e-4b47-a43f-2e748992a602}, !- Handle
  Medium Office People Activity Level Schedule, !- Name
  {45af63e2-38a2-4988-97cf-7e3da25f638b}, !- Schedule Type Limits Name
  {fdc3aebd-36c1-494a-a7e5-d4bef8a74ff2}; !- Default Day Schedule Name

OS:Schedule:Day,
  {fdc3aebd-36c1-494a-a7e5-d4bef8a74ff2}, !- Handle
  Medium Office People Activity Level All Days Schedule, !- Name
  {45af63e2-38a2-4988-97cf-7e3da25f638b}, !- Schedule Type Limits Name
  ,                                       !- Interpolate to Timestep
  24,                                     !- Hour 1
  0,                                      !- Minute 1
  120;                                    !- Value Until Time 1

OS:ScheduleTypeLimits,
  {45af63e2-38a2-4988-97cf-7e3da25f638b}, !- Handle
  ActivityLevel,                          !- Name
  0,                                      !- Lower Limit Value {BasedOnField A4}
  ,                                       !- Upper Limit Value {BasedOnField A4}
  Continuous,                             !- Numeric Type
  ActivityLevel;                          !- Unit Type

OS:Schedule:Ruleset,
  {8073ec63-bde9-44ac-ae46-40d43ccc39c3}, !- Handle
  Medium Office Lighting Schedule,        !- Name
  {7428c0b9-3b6c-42be-bc18-87eac8736f1f}, !- Schedule Type Limits Name
  {52996e18-ba51-4201-aaad-361380a85d0f}, !- Default Day Schedule Name
  {e7985163-6ccf-457f-97a1-0758033875c6}, !- Summer Design Day Schedule Name
  {c7f36762-1a39-4cef-831b-127f5b9f0271}; !- Winter Design Day Schedule Name

OS:Schedule:Day,
  {52996e18-ba51-4201-aaad-361380a85d0f}, !- Handle
  Medium Office Lighting All Other Days Schedule, !- Name
  {7428c0b9-3b6c-42be-bc18-87eac8736f1f}, !- Schedule Type Limits Name
  ,                                       !- Interpolate to Timestep
  24,                                     !- Hour 1
  0,                                      !- Minute 1
  0.05;                                   !- Value Until Time 1

OS:Schedule:Day,
  {188dd036-6e77-4e65-9584-41ffcadf4417}, !- Handle
  Medium Office Lighting Summer Design Day Schedule, !- Name
  ,                                       !- Schedule Type Limits Name
  ,                                       !- Interpolate to Timestep
  6,                                      !- Hour 1
  0,                                      !- Minute 1
  1,                                      !- Value Until Time 1
  24,                                     !- Hour 2
  0,                                      !- Minute 2
  0;                                      !- Value Until Time 2

OS:Schedule:Day,
  {e7985163-6ccf-457f-97a1-0758033875c6}, !- Handle
  Medium Office Lighting Summer Design Day Schedule 1, !- Name
  {7428c0b9-3b6c-42be-bc18-87eac8736f1f}, !- Schedule Type Limits Name
  ,                                       !- Interpolate to Timestep
  6,                                      !- Hour 1
  0,                                      !- Minute 1
  1,                                      !- Value Until Time 1
  24,                                     !- Hour 2
  0,                                      !- Minute 2
  0;                                      !- Value Until Time 2

OS:Schedule:Day,
  {fb03378c-4ec9-4cb0-85c0-c3997dbe6b4f}, !- Handle
  Medium Office Lighting Winter Design Day Schedule, !- Name
  ,                                       !- Schedule Type Limits Name
  ,                                       !- Interpolate to Timestep
  24,                                     !- Hour 1
  0,                                      !- Minute 1
  0;                                      !- Value Until Time 1

OS:Schedule:Day,
  {c7f36762-1a39-4cef-831b-127f5b9f0271}, !- Handle
  Medium Office Lighting Winter Design Day Schedule 1, !- Name
  {7428c0b9-3b6c-42be-bc18-87eac8736f1f}, !- Schedule Type Limits Name
  ,                                       !- Interpolate to Timestep
  24,                                     !- Hour 1
  0,                                      !- Minute 1
  0;                                      !- Value Until Time 1

OS:Schedule:Rule,
  {5ce181df-5e6d-4a9f-be76-3ca30d558227}, !- Handle
  Medium Office Lighting Schedule Weekdays Rule, !- Name
  {8073ec63-bde9-44ac-ae46-40d43ccc39c3}, !- Schedule Ruleset Name
  1,                                      !- Rule Order
  {a5698f37-8e43-4fc6-a573-d10ccc75b474}, !- Day Schedule Name
  ,                                       !- Apply Sunday
  Yes,                                    !- Apply Monday
  Yes,                                    !- Apply Tuesday
  Yes,                                    !- Apply Wednesday
  Yes,                                    !- Apply Thursday
  Yes;                                    !- Apply Friday

OS:Schedule:Day,
  {a5698f37-8e43-4fc6-a573-d10ccc75b474}, !- Handle
  Medium Office Lighting Weekdays Schedule, !- Name
  {7428c0b9-3b6c-42be-bc18-87eac8736f1f}, !- Schedule Type Limits Name
  ,                                       !- Interpolate to Timestep
  5,                                      !- Hour 1
  0,                                      !- Minute 1
  0.05,                                   !- Value Until Time 1
  7,                                      !- Hour 2
  0,                                      !- Minute 2
  0.1,                                    !- Value Until Time 2
  8,                                      !- Hour 3
  0,                                      !- Minute 3
  0.3,                                    !- Value Until Time 3
  17,                                     !- Hour 4
  0,                                      !- Minute 4
  0.9,                                    !- Value Until Time 4
  18,                                     !- Hour 5
  0,                                      !- Minute 5
  0.7,                                    !- Value Until Time 5
  20,                                     !- Hour 6
  0,                                      !- Minute 6
  0.5,                                    !- Value Until Time 6
  22,                                     !- Hour 7
  0,                                      !- Minute 7
  0.3,                                    !- Value Until Time 7
  23,                                     !- Hour 8
  0,                                      !- Minute 8
  0.1,                                    !- Value Until Time 8
  24,                                     !- Hour 9
  0,                                      !- Minute 9
  0.05;                                   !- Value Until Time 9

OS:Schedule:Rule,
  {3222544d-1578-4435-a367-645361d0dba1}, !- Handle
  Medium Office Lighting Schedule Saturday Rule, !- Name
  {8073ec63-bde9-44ac-ae46-40d43ccc39c3}, !- Schedule Ruleset Name
  0,                                      !- Rule Order
  {9c4a73c9-cba6-4837-a944-1b978f38b7c5}, !- Day Schedule Name
  ,                                       !- Apply Sunday
  ,                                       !- Apply Monday
  ,                                       !- Apply Tuesday
  ,                                       !- Apply Wednesday
  ,                                       !- Apply Thursday
  ,                                       !- Apply Friday
  Yes;                                    !- Apply Saturday

OS:Schedule:Day,
  {9c4a73c9-cba6-4837-a944-1b978f38b7c5}, !- Handle
  Medium Office Lighting Saturday Schedule, !- Name
  {7428c0b9-3b6c-42be-bc18-87eac8736f1f}, !- Schedule Type Limits Name
  ,                                       !- Interpolate to Timestep
  6,                                      !- Hour 1
  0,                                      !- Minute 1
  0.05,                                   !- Value Until Time 1
  8,                                      !- Hour 2
  0,                                      !- Minute 2
  0.1,                                    !- Value Until Time 2
  14,                                     !- Hour 3
  0,                                      !- Minute 3
  0.5,                                    !- Value Until Time 3
  17,                                     !- Hour 4
  0,                                      !- Minute 4
  0.15,                                   !- Value Until Time 4
  24,                                     !- Hour 5
  0,                                      !- Minute 5
  0.05;                                   !- Value Until Time 5

OS:Schedule:Ruleset,
  {fd18a6e6-ee91-4e0b-b138-f1149a42b071}, !- Handle
  Medium Office Electric Equipment Schedule, !- Name
  {7428c0b9-3b6c-42be-bc18-87eac8736f1f}, !- Schedule Type Limits Name
  {88f16bd9-b476-4c7b-90be-71fe4b646dcf}, !- Default Day Schedule Name
  {b5bc9847-d303-4a35-a72e-1cfb355806a7}, !- Summer Design Day Schedule Name
  {96935b3c-3fb2-43bd-afbf-6f76eeb18e7a}; !- Winter Design Day Schedule Name

OS:Schedule:Day,
  {88f16bd9-b476-4c7b-90be-71fe4b646dcf}, !- Handle
  Medium Office Electric Equipment All Other Days Schedule, !- Name
  {7428c0b9-3b6c-42be-bc18-87eac8736f1f}, !- Schedule Type Limits Name
  ,                                       !- Interpolate to Timestep
  24,                                     !- Hour 1
  0,                                      !- Minute 1
  0.3;                                    !- Value Until Time 1

OS:Schedule:Day,
  {2d0f6a21-9424-4c70-8abb-b58c8c3bf169}, !- Handle
  Medium Office Electric Equipment Summer Design Day Schedule, !- Name
  ,                                       !- Schedule Type Limits Name
  ,                                       !- Interpolate to Timestep
  6,                                      !- Hour 1
  0,                                      !- Minute 1
  1,                                      !- Value Until Time 1
  24,                                     !- Hour 2
  0,                                      !- Minute 2
  0;                                      !- Value Until Time 2

OS:Schedule:Day,
  {b5bc9847-d303-4a35-a72e-1cfb355806a7}, !- Handle
  Medium Office Electric Equipment Summer Design Day Schedule 1, !- Name
  {7428c0b9-3b6c-42be-bc18-87eac8736f1f}, !- Schedule Type Limits Name
  ,                                       !- Interpolate to Timestep
  6,                                      !- Hour 1
  0,                                      !- Minute 1
  1,                                      !- Value Until Time 1
  24,                                     !- Hour 2
  0,                                      !- Minute 2
  0;                                      !- Value Until Time 2

OS:Schedule:Day,
  {b380e199-64f4-441d-8cee-9d4c092086ac}, !- Handle
  Medium Office Electric Equipment Winter Design Day Schedule, !- Name
  ,                                       !- Schedule Type Limits Name
  ,                                       !- Interpolate to Timestep
  24,                                     !- Hour 1
  0,                                      !- Minute 1
  0;                                      !- Value Until Time 1

OS:Schedule:Day,
  {96935b3c-3fb2-43bd-afbf-6f76eeb18e7a}, !- Handle
  Medium Office Electric Equipment Winter Design Day Schedule 1, !- Name
  {7428c0b9-3b6c-42be-bc18-87eac8736f1f}, !- Schedule Type Limits Name
  ,                                       !- Interpolate to Timestep
  24,                                     !- Hour 1
  0,                                      !- Minute 1
  0;                                      !- Value Until Time 1

OS:Schedule:Rule,
  {0c7859f8-2940-43ea-ba4c-1ba88bc79e1c}, !- Handle
  Medium Office Electric Equipment Schedule Weekdays Rule, !- Name
  {fd18a6e6-ee91-4e0b-b138-f1149a42b071}, !- Schedule Ruleset Name
  1,                                      !- Rule Order
  {80c3e296-37d8-473e-8eeb-66dd52a953be}, !- Day Schedule Name
  ,                                       !- Apply Sunday
  Yes,                                    !- Apply Monday
  Yes,                                    !- Apply Tuesday
  Yes,                                    !- Apply Wednesday
  Yes,                                    !- Apply Thursday
  Yes;                                    !- Apply Friday

OS:Schedule:Day,
  {80c3e296-37d8-473e-8eeb-66dd52a953be}, !- Handle
  Medium Office Electric Equipment Weekdays Schedule, !- Name
  {7428c0b9-3b6c-42be-bc18-87eac8736f1f}, !- Schedule Type Limits Name
  ,                                       !- Interpolate to Timestep
  8,                                      !- Hour 1
  0,                                      !- Minute 1
  0.4,                                    !- Value Until Time 1
  12,                                     !- Hour 2
  0,                                      !- Minute 2
  0.9,                                    !- Value Until Time 2
  13,                                     !- Hour 3
  0,                                      !- Minute 3
  0.8,                                    !- Value Until Time 3
  17,                                     !- Hour 4
  0,                                      !- Minute 4
  0.9,                                    !- Value Until Time 4
  18,                                     !- Hour 5
  0,                                      !- Minute 5
  0.8,                                    !- Value Until Time 5
  20,                                     !- Hour 6
  0,                                      !- Minute 6
  0.6,                                    !- Value Until Time 6
  22,                                     !- Hour 7
  0,                                      !- Minute 7
  0.5,                                    !- Value Until Time 7
  24,                                     !- Hour 8
  0,                                      !- Minute 8
  0.4;                                    !- Value Until Time 8

OS:Schedule:Rule,
  {1c832482-153f-4ed1-99b2-46bfbbdb81b9}, !- Handle
  Medium Office Electric Equipment Schedule Saturday Rule, !- Name
  {fd18a6e6-ee91-4e0b-b138-f1149a42b071}, !- Schedule Ruleset Name
  0,                                      !- Rule Order
  {d2fd7cea-f77a-4812-8b12-743a1c123512}, !- Day Schedule Name
  ,                                       !- Apply Sunday
  ,                                       !- Apply Monday
  ,                                       !- Apply Tuesday
  ,                                       !- Apply Wednesday