
OS:Version,
  {4a753ed7-f91c-4f46-a9d5-49ad82a8118a}, !- Handle
  2.8.1;                                  !- Version Identifier

OS:Facility,
  {ed9f4943-1435-445d-a10a-d99fb86516b9}; !- Handle

OS:Site,
  {f994496b-2297-4101-8a35-edf48ad175b6}, !- Handle
  Buffalo Niagara Intl Ap_NY_USA,         !- Name
  42.8157608099409,                       !- Latitude {deg}
  -78.8485427512932,                      !- Longitude {deg}
  -5,                                     !- Time Zone {hr}
  215,                                    !- Elevation {m}
  City;                                   !- Terrain

OS:SimulationControl,
  {494ec460-214d-4258-a402-9ce8d2c55408}, !- Handle
  ,                                       !- Do Zone Sizing Calculation
  ,                                       !- Do System Sizing Calculation
  ,                                       !- Do Plant Sizing Calculation
  No,                                     !- Run Simulation for Sizing Periods
  Yes;                                    !- Run Simulation for Weather File Run Periods

OS:Sizing:Parameters,
  {b8f41bff-38e9-496e-b5b8-9e4a52e7bde1}, !- Handle
  1.25,                                   !- Heating Sizing Factor
  1.15;                                   !- Cooling Sizing Factor

OS:Timestep,
  {0169ce64-c848-4b21-84ab-cd37c369ac8a}, !- Handle
  2;                                      !- Number of Timesteps per Hour

OS:ShadowCalculation,
  {f95e47ff-77e9-436a-bb46-7b4ce233cc76}, !- Handle
  20,                                     !- Calculation Frequency
  15000;                                  !- Maximum Figures in Shadow Overlap Calculations

OS:HeatBalanceAlgorithm,
  {e65a8f07-2506-456a-8c80-8a69112d24bf}, !- Handle
  ConductionTransferFunction,             !- Algorithm
  200;                                    !- Surface Temperature Upper Limit {C}

OS:RunPeriod,
  {ebc0bedf-85c6-4340-bfea-78327bca429b}, !- Handle
  Run Period 1,                           !- Name
  6,                                      !- Begin Month
  1,                                      !- Begin Day of Month
  8,                                      !- End Month
  1,                                      !- End Day of Month
  ,                                       !- Use Weather File Holidays and Special Days
  ,                                       !- Use Weather File Daylight Saving Period
  ,                                       !- Apply Weekend Holiday Rule
  ,                                       !- Use Weather File Rain Indicators
  ,                                       !- Use Weather File Snow Indicators
  ;                                       !- Number of Times Runperiod to be Repeated

OS:LifeCycleCost:Parameters,
  {304bd1d9-9aca-48fd-ad21-9d5495c2f3ad}, !- Handle
  ,                                       !- Analysis Type
  ,                                       !- Discounting Convention
  ,                                       !- Inflation Approach
  ,                                       !- Real Discount Rate
  ,                                       !- Nominal Discount Rate
  ,                                       !- Inflation
  ,                                       !- Base Date Month
  ,                                       !- Base Date Year
  ,                                       !- Service Date Month
  ,                                       !- Service Date Year
  ;                                       !- Length of Study Period in Years

OS:YearDescription,
  {2ad93603-a75b-4fd6-ae71-a6148658ee28}, !- Handle
  2019,                                   !- Calendar Year
  ,                                       !- Day of Week for Start Day
  ;                                       !- Is Leap Year

OS:WeatherFile,
  {90c94767-27b4-4bcd-94ea-cb1f91291840}, !- Handle
  Buffalo Niagara Intl Ap,                !- City
  NY,                                     !- State Province Region
  USA,                                    !- Country
  TMY3,                                   !- Data Source
  725280,                                 !- WMO Number
  42.93,                                  !- Latitude {deg}
  -78.73,                                 !- Longitude {deg}
  -5,                                     !- Time Zone {hr}
  215,                                    !- Elevation {m}
  file:///C:/gitrepos/urbanopt-example-geojson-project/weather/USA_NY_Buffalo-Greater.Buffalo.Intl.AP.725280_TMY3.epw, !- Url
  ;                                       !- Checksum

OS:Site:WaterMainsTemperature,
  {b21ae07c-30e2-4413-8e9e-0847f59b89c5}, !- Handle
  Correlation,                            !- Calculation Method
  ,                                       !- Temperature Schedule Name
  8.96666666666667,                       !- Annual Average Outdoor Air Temperature {C}
  26.2;                                   !- Maximum Difference In Monthly Average Outdoor Air Temperatures {deltaC}

OS:SizingPeriod:DesignDay,
  {15fc152b-cc6c-4b70-9efc-00a9bfad843d}, !- Handle
  Buffalo Niagara Intl Ap Ann Htg 99.6% Condns DB, !- Name
  -16.3,                                  !- Maximum Dry-Bulb Temperature {C}
  0,                                      !- Daily Dry-Bulb Temperature Range {deltaC}
  -16.3,                                  !- Humidity Indicating Conditions at Maximum Dry-Bulb
  98769,                                  !- Barometric Pressure {Pa}
  5.1,                                    !- Wind Speed {m/s}
  270,                                    !- Wind Direction {deg}
  0,                                      !- Sky Clearness
  0,                                      !- Rain Indicator
  0,                                      !- Snow Indicator
  21,                                     !- Day of Month
  1,                                      !- Month
  WinterDesignDay,                        !- Day Type
  0,                                      !- Daylight Saving Time Indicator
  Wetbulb,                                !- Humidity Indicating Type
  ,                                       !- Humidity Indicating Day Schedule Name
  DefaultMultipliers,                     !- Dry-Bulb Temperature Range Modifier Type
  ,                                       !- Dry-Bulb Temperature Range Modifier Schedule Name
  ASHRAEClearSky;                         !- Solar Model Indicator

OS:SizingPeriod:DesignDay,
  {3a4929d0-c844-4391-8440-e474cc6ac070}, !- Handle
  Buffalo Niagara Intl Ap Ann Clg .4% Condns DB=>MWB, !- Name
  30.3,                                   !- Maximum Dry-Bulb Temperature {C}
  9.3,                                    !- Daily Dry-Bulb Temperature Range {deltaC}
  21.8,                                   !- Humidity Indicating Conditions at Maximum Dry-Bulb
  98769,                                  !- Barometric Pressure {Pa}
  5.7,                                    !- Wind Speed {m/s}
  240,                                    !- Wind Direction {deg}
  0,                                      !- Sky Clearness
  0,                                      !- Rain Indicator
  0,                                      !- Snow Indicator
  21,                                     !- Day of Month
  7,                                      !- Month
  SummerDesignDay,                        !- Day Type
  0,                                      !- Daylight Saving Time Indicator
  Wetbulb,                                !- Humidity Indicating Type
  ,                                       !- Humidity Indicating Day Schedule Name
  DefaultMultipliers,                     !- Dry-Bulb Temperature Range Modifier Type
  ,                                       !- Dry-Bulb Temperature Range Modifier Schedule Name
  ASHRAETau,                              !- Solar Model Indicator
  ,                                       !- Beam Solar Day Schedule Name
  ,                                       !- Diffuse Solar Day Schedule Name
  0.462,                                  !- ASHRAE Taub {dimensionless}
  2.001;                                  !- ASHRAE Taud {dimensionless}

OS:SizingPeriod:DesignDay,
  {62310922-4cc2-4c0a-853f-8d83ea550136}, !- Handle
  Buffalo Niagara Intl Ap Ann Clg .4% Condns WB=>MDB, !- Name
  27.8,                                   !- Maximum Dry-Bulb Temperature {C}
  9.3,                                    !- Daily Dry-Bulb Temperature Range {deltaC}
  23.8,                                   !- Humidity Indicating Conditions at Maximum Dry-Bulb
  98769,                                  !- Barometric Pressure {Pa}
  5.7,                                    !- Wind Speed {m/s}
  240,                                    !- Wind Direction {deg}
  0,                                      !- Sky Clearness
  0,                                      !- Rain Indicator
  0,                                      !- Snow Indicator
  21,                                     !- Day of Month
  7,                                      !- Month
  SummerDesignDay,                        !- Day Type
  0,                                      !- Daylight Saving Time Indicator
  Wetbulb,                                !- Humidity Indicating Type
  ,                                       !- Humidity Indicating Day Schedule Name
  DefaultMultipliers,                     !- Dry-Bulb Temperature Range Modifier Type
  ,                                       !- Dry-Bulb Temperature Range Modifier Schedule Name
  ASHRAETau,                              !- Solar Model Indicator
  ,                                       !- Beam Solar Day Schedule Name
  ,                                       !- Diffuse Solar Day Schedule Name
  0.462,                                  !- ASHRAE Taub {dimensionless}
  2.001;                                  !- ASHRAE Taud {dimensionless}

OS:ClimateZones,
  {e21dab1f-379a-437d-ae03-dd9c1c49b81a}, !- Handle
  ,                                       !- Active Institution
  ,                                       !- Active Year
  ASHRAE,                                 !- Climate Zone Institution Name 1
  ANSI/ASHRAE Standard 169,               !- Climate Zone Document Name 1
  2006,                                   !- Climate Zone Document Year 1
  6A;                                     !- Climate Zone Value 1

OS:RunPeriodControl:DaylightSavingTime,
  {23b07d62-b866-4e21-a2d2-6e63406825b1}, !- Handle
  2nd Sunday in March,                    !- Start Date
  1st Sunday in November;                 !- End Date

OS:People:Definition,
  {d8f4254c-a020-493d-9f37-eb8a53c4fcdf}, !- Handle
  Office WholeBuilding - Md Office People Definition, !- Name
  People/Area,                            !- Number of People Calculation Method
  ,                                       !- Number of People {people}
  0.0538195520835486,                     !- People per Space Floor Area {person/m2}
  ,                                       !- Space Floor Area per Person {m2/person}
  0.3;                                    !- Fraction Radiant

OS:Schedule:Ruleset,
  {a5b4c76d-3458-48af-8deb-014a768da9db}, !- Handle
  Clothing Schedule,                      !- Name
  {619af016-ef15-4ec7-9df5-224ec5cccf04}, !- Schedule Type Limits Name
  {5bc8cc32-e9bc-4049-97e7-faad33eb5a2c}; !- Default Day Schedule Name

OS:Schedule:Day,
  {5bc8cc32-e9bc-4049-97e7-faad33eb5a2c}, !- Handle
  Clothing Schedule Default Winter Clothes, !- Name
  {619af016-ef15-4ec7-9df5-224ec5cccf04}, !- Schedule Type Limits Name
  ,                                       !- Interpolate to Timestep
  24,                                     !- Hour 1
  0,                                      !- Minute 1
  1;                                      !- Value Until Time 1

OS:Schedule:Rule,
  {ecd21a0c-6847-4e8c-b1ea-80dcf7e591d9}, !- Handle
  Schedule Rule 1,                        !- Name
  {a5b4c76d-3458-48af-8deb-014a768da9db}, !- Schedule Ruleset Name
  0,                                      !- Rule Order
  {1da0607a-4bbc-46ff-9180-4c004302a4de}, !- Day Schedule Name
  ,                                       !- Apply Sunday
  ,                                       !- Apply Monday
  ,                                       !- Apply Tuesday
  ,                                       !- Apply Wednesday
  ,                                       !- Apply Thursday
  ,                                       !- Apply Friday
  ,                                       !- Apply Saturday
  ,                                       !- Apply Holiday
  DateRange,                              !- Date Specification Type
  5,                                      !- Start Month
  1,                                      !- Start Day
  9,                                      !- End Month
  30;                                     !- End Day

OS:Schedule:Day,
  {1da0607a-4bbc-46ff-9180-4c004302a4de}, !- Handle
  Clothing Schedule Summer Clothes,       !- Name
  {619af016-ef15-4ec7-9df5-224ec5cccf04}, !- Schedule Type Limits Name
  ,                                       !- Interpolate to Timestep
  24,                                     !- Hour 1
  0,                                      !- Minute 1
  0.5;                                    !- Value Until Time 1

OS:ScheduleTypeLimits,
  {619af016-ef15-4ec7-9df5-224ec5cccf04}, !- Handle
  ClothingInsulation,                     !- Name
  0,                                      !- Lower Limit Value
  ,                                       !- Upper Limit Value
  Continuous,                             !- Numeric Type
  ClothingInsulation;                     !- Unit Type

OS:Schedule:Ruleset,
  {5068f53f-d432-4edb-8b83-f7d2b0b59e26}, !- Handle
  Air Velocity Schedule,                  !- Name
  {3d6cb7fa-f548-42bc-90d8-177390a8a9c7}, !- Schedule Type Limits Name
  {3be2c759-e503-4d1e-b7e9-bd65cba0a851}; !- Default Day Schedule Name

OS:Schedule:Day,
  {3be2c759-e503-4d1e-b7e9-bd65cba0a851}, !- Handle
  Air Velocity Schedule Default,          !- Name
  {3d6cb7fa-f548-42bc-90d8-177390a8a9c7}, !- Schedule Type Limits Name
  ,                                       !- Interpolate to Timestep
  24,                                     !- Hour 1
  0,                                      !- Minute 1
  0.2;                                    !- Value Until Time 1

OS:ScheduleTypeLimits,
  {3d6cb7fa-f548-42bc-90d8-177390a8a9c7}, !- Handle
  Velocity,                               !- Name
  0,                                      !- Lower Limit Value
  ,                                       !- Upper Limit Value
  Continuous,                             !- Numeric Type
  Velocity;                               !- Unit Type

OS:Schedule:Ruleset,
  {bb2a6b1c-ba03-4e9d-8465-29db48bf090c}, !- Handle
  Work Efficiency Schedule,               !- Name
  {6fc85f50-1a30-4cb0-976f-3a6c2bb24d35}, !- Schedule Type Limits Name
  {5d2e534e-3e96-46df-9199-55f384f83216}; !- Default Day Schedule Name

OS:Schedule:Day,
  {5d2e534e-3e96-46df-9199-55f384f83216}, !- Handle
  Work Efficiency Schedule Default,       !- Name
  {6fc85f50-1a30-4cb0-976f-3a6c2bb24d35}, !- Schedule Type Limits Name
  ,                                       !- Interpolate to Timestep
  24,                                     !- Hour 1
  0,                                      !- Minute 1
  0;                                      !- Value Until Time 1

OS:ScheduleTypeLimits,
  {6fc85f50-1a30-4cb0-976f-3a6c2bb24d35}, !- Handle
  Fractional,                             !- Name
  0,                                      !- Lower Limit Value
  1,                                      !- Upper Limit Value
  Continuous;                             !- Numeric Type

OS:Lights:Definition,
  {56efcc29-a5df-401c-b05e-ec437ba8fd27}, !- Handle
  Office WholeBuilding - Md Office Lights Definition, !- Name
  Watts/Area,                             !- Design Level Calculation Method
  ,                                       !- Lighting Level {W}
  10.7639104167097,                       !- Watts per Space Floor Area {W/m2}
  ,                                       !- Watts per Person {W/person}
  0.7,                                    !- Fraction Radiant
  0.2;                                    !- Fraction Visible

OS:AdditionalProperties,
  {51b72707-d17b-44a4-b0b7-914a81173ce3}, !- Handle
  {56efcc29-a5df-401c-b05e-ec437ba8fd27}, !- Object Name
  lpd_fraction_linear_fluorescent,        !- Feature Name 1
  Double,                                 !- Feature Data Type 1
  1;                                      !- Feature Value 1

OS:ElectricEquipment:Definition,
  {954b1b21-5c5b-447c-9435-b5352082a27d}, !- Handle
  Office WholeBuilding - Md Office Elec Equip Definition, !- Name
  Watts/Area,                             !- Design Level Calculation Method
  ,                                       !- Design Level {W}
  8.07293281253229,                       !- Watts per Space Floor Area {W/m2}
  ,                                       !- Watts per Person {W/person}
  ,                                       !- Fraction Latent
  0.5;                                    !- Fraction Radiant

OS:DesignSpecification:OutdoorAir,
  {9713f91a-7569-4cfa-81d9-5d170c1c81c3}, !- Handle
  Office WholeBuilding - Md Office Ventilation, !- Name
  Sum,                                    !- Outdoor Air Method
  ,                                       !- Outdoor Air Flow per Person {m3/s-person}
  0.000508,                               !- Outdoor Air Flow per Floor Area {m3/s-m2}
  ,                                       !- Outdoor Air Flow Rate {m3/s}
  ,                                       !- Outdoor Air Flow Air Changes per Hour {1/hr}
  ;                                       !- Outdoor Air Flow Rate Fraction Schedule Name

OS:DefaultScheduleSet,
  {1a911707-89d1-4728-bcf2-c419fea21285}, !- Handle
  Office WholeBuilding - Md Office Schedule Set, !- Name
  ,                                       !- Hours of Operation Schedule Name
  {4cd1f095-b657-4f67-bf94-c79ff1363616}, !- Number of People Schedule Name
  {3ca9eaa9-7a61-4c46-ae31-51dd701aea3f}, !- People Activity Level Schedule Name
  {dc2f0405-6c57-4d78-a28d-bf179142ee67}, !- Lighting Schedule Name
  {eb26ef0c-4d96-4700-84d8-2511d104878e}, !- Electric Equipment Schedule Name
  ,                                       !- Gas Equipment Schedule Name
  ,                                       !- Hot Water Equipment Schedule Name
  {34a365d0-09a0-4ddd-b675-ff047bd3897e}, !- Infiltration Schedule Name
  ,                                       !- Steam Equipment Schedule Name
  ;                                       !- Other Equipment Schedule Name

OS:Schedule:Ruleset,
  {4cd1f095-b657-4f67-bf94-c79ff1363616}, !- Handle
  OfficeMedium BLDG_OCC_SCH,              !- Name
  {6fc85f50-1a30-4cb0-976f-3a6c2bb24d35}, !- Schedule Type Limits Name
  {b042050e-a185-47c7-a823-0ead07694448}, !- Default Day Schedule Name
  {5972b761-e0a2-496f-9a4c-047fb9d080e8}, !- Summer Design Day Schedule Name
  {85402dc4-d9c1-4b72-840f-501e36596a13}; !- Winter Design Day Schedule Name

OS:Schedule:Day,
  {b042050e-a185-47c7-a823-0ead07694448}, !- Handle
  OfficeMedium BLDG_OCC_SCH Default,      !- Name
  {6fc85f50-1a30-4cb0-976f-3a6c2bb24d35}, !- Schedule Type Limits Name
  ,                                       !- Interpolate to Timestep
  6,                                      !- Hour 1
  0,                                      !- Minute 1
  0,                                      !- Value Until Time 1
  18,                                     !- Hour 2
  0,                                      !- Minute 2
  0.05,                                   !- Value Until Time 2
  24,                                     !- Hour 3
  0,                                      !- Minute 3
  0;                                      !- Value Until Time 3

OS:Schedule:Rule,
  {e902db35-e3cb-4f80-ab8c-3ab01d9730a7}, !- Handle
  Schedule Rule 2,                        !- Name
  {4cd1f095-b657-4f67-bf94-c79ff1363616}, !- Schedule Ruleset Name
  1,                                      !- Rule Order
  {62f252f1-d81d-4114-b0fb-8ed8b3bcff32}, !- Day Schedule Name
  ,                                       !- Apply Sunday
  ,                                       !- Apply Monday
  ,                                       !- Apply Tuesday
  ,                                       !- Apply Wednesday
  ,                                       !- Apply Thursday
  ,                                       !- Apply Friday
  Yes,                                    !- Apply Saturday
  ,                                       !- Apply Holiday
  DateRange,                              !- Date Specification Type
  1,                                      !- Start Month
  1,                                      !- Start Day
  12,                                     !- End Month
  31;                                     !- End Day

OS:Schedule:Day,
  {62f252f1-d81d-4114-b0fb-8ed8b3bcff32}, !- Handle
  OfficeMedium BLDG_OCC_SCH Sat Day,      !- Name
  {6fc85f50-1a30-4cb0-976f-3a6c2bb24d35}, !- Schedule Type Limits Name
  ,                                       !- Interpolate to Timestep
  6,                                      !- Hour 1
  0,                                      !- Minute 1
  0,                                      !- Value Until Time 1
  8,                                      !- Hour 2
  0,                                      !- Minute 2
  0.1,                                    !- Value Until Time 2
  12,                                     !- Hour 3
  0,                                      !- Minute 3
  0.3,                                    !- Value Until Time 3
  17,                                     !- Hour 4
  0,                                      !- Minute 4
  0.1,                                    !- Value Until Time 4
  19,                                     !- Hour 5
  0,                                      !- Minute 5
  0.05,                                   !- Value Until Time 5
  24,                                     !- Hour 6
  0,                                      !- Minute 6
  0;                                      !- Value Until Time 6

OS:Schedule:Day,
  {5972b761-e0a2-496f-9a4c-047fb9d080e8}, !- Handle
  OfficeMedium BLDG_OCC_SCH Summer Design Day, !- Name
  {6fc85f50-1a30-4cb0-976f-3a6c2bb24d35}, !- Schedule Type Limits Name
  ,                                       !- Interpolate to Timestep
  6,                                      !- Hour 1
  0,                                      !- Minute 1
  0,                                      !- Value Until Time 1
  22,                                     !- Hour 2
  0,                                      !- Minute 2
  1,                                      !- Value Until Time 2
  24,                                     !- Hour 3
  0,                                      !- Minute 3
  0.05;                                   !- Value Until Time 3

OS:Schedule:Rule,
  {f97e6457-f584-486f-9b95-1d97e26631d6}, !- Handle
  Schedule Rule 3,                        !- Name
  {4cd1f095-b657-4f67-bf94-c79ff1363616}, !- Schedule Ruleset Name
  0,                                      !- Rule Order
  {71f610cd-15a9-4e1d-b8ac-49da5d0aa96c}, !- Day Schedule Name
  ,                                       !- Apply Sunday
  Yes,                                    !- Apply Monday
  Yes,                                    !- Apply Tuesday
  Yes,                                    !- Apply Wednesday
  Yes,                                    !- Apply Thursday
  Yes,                                    !- Apply Friday
  ,                                       !- Apply Saturday
  ,                                       !- Apply Holiday
  DateRange,                              !- Date Specification Type
  1,                                      !- Start Month
  1,                                      !- Start Day
  12,                                     !- End Month
  31;                                     !- End Day

OS:Schedule:Day,
  {71f610cd-15a9-4e1d-b8ac-49da5d0aa96c}, !- Handle
  OfficeMedium BLDG_OCC_SCH Wkdy Day,     !- Name
  {6fc85f50-1a30-4cb0-976f-3a6c2bb24d35}, !- Schedule Type Limits Name
  ,                                       !- Interpolate to Timestep
  6,                                      !- Hour 1
  0,                                      !- Minute 1
  0,                                      !- Value Until Time 1
  7,                                      !- Hour 2
  0,                                      !- Minute 2
  0.1,                                    !- Value Until Time 2
  8,                                      !- Hour 3
  0,                                      !- Minute 3
  0.2,                                    !- Value Until Time 3
  12,                                     !- Hour 4
  0,                                      !- Minute 4
  0.95,                                   !- Value Until Time 4
  13,                                     !- Hour 5
  0,                                      !- Minute 5
  0.5,                                    !- Value Until Time 5
  17,                                     !- Hour 6
  0,                                      !- Minute 6
  0.95,                                   !- Value Until Time 6
  18,                                     !- Hour 7
  0,                                      !- Minute 7
  0.3,                                    !- Value Until Time 7
  22,                                     !- Hour 8
  0,                                      !- Minute 8
  0.1,                                    !- Value Until Time 8
  24,                                     !- Hour 9
  0,                                      !- Minute 9
  0.05;                                   !- Value Until Time 9

OS:Schedule:Day,
  {85402dc4-d9c1-4b72-840f-501e36596a13}, !- Handle
  OfficeMedium BLDG_OCC_SCH Winter Design Day, !- Name
  {6fc85f50-1a30-4cb0-976f-3a6c2bb24d35}, !- Schedule Type Limits Name
  ,                                       !- Interpolate to Timestep
  24,                                     !- Hour 1
  0,                                      !- Minute 1
  0;                                      !- Value Until Time 1

OS:Schedule:Ruleset,
  {3ca9eaa9-7a61-4c46-ae31-51dd701aea3f}, !- Handle
  OfficeMedium ACTIVITY_SCH,              !- Name
  {51284254-238b-40a4-9d58-be3ae14224a7}, !- Schedule Type Limits Name
  {857436a6-fe21-4059-91bd-a8ea1719f1c6}, !- Default Day Schedule Name
  {6e7347bd-53fc-4868-9f48-aa87850ee988}, !- Summer Design Day Schedule Name
  {06ecfe00-4c89-4d4b-999f-428c85a3294f}; !- Winter Design Day Schedule Name

OS:Schedule:Day,
  {857436a6-fe21-4059-91bd-a8ea1719f1c6}, !- Handle
  OfficeMedium ACTIVITY_SCH Default,      !- Name
  {51284254-238b-40a4-9d58-be3ae14224a7}, !- Schedule Type Limits Name
  ,                                       !- Interpolate to Timestep
  24,                                     !- Hour 1
  0,                                      !- Minute 1
  120;                                    !- Value Until Time 1

OS:Schedule:Day,
  {06ecfe00-4c89-4d4b-999f-428c85a3294f}, !- Handle
  OfficeMedium ACTIVITY_SCH Winter Design Day, !- Name
  {51284254-238b-40a4-9d58-be3ae14224a7}, !- Schedule Type Limits Name
  ,                                       !- Interpolate to Timestep
  24,                                     !- Hour 1
  0,                                      !- Minute 1
  120;                                    !- Value Until Time 1

OS:Schedule:Day,
  {6e7347bd-53fc-4868-9f48-aa87850ee988}, !- Handle
  OfficeMedium ACTIVITY_SCH Summer Design Day, !- Name
  {51284254-238b-40a4-9d58-be3ae14224a7}, !- Schedule Type Limits Name
  ,                                       !- Interpolate to Timestep
  24,                                     !- Hour 1
  0,                                      !- Minute 1
  120;                                    !- Value Until Time 1

OS:ScheduleTypeLimits,
  {51284254-238b-40a4-9d58-be3ae14224a7}, !- Handle
  ActivityLevel,                          !- Name
  0,                                      !- Lower Limit Value
  ,                                       !- Upper Limit Value
  Continuous,                             !- Numeric Type
  ActivityLevel;                          !- Unit Type

OS:Schedule:Ruleset,
  {dc2f0405-6c57-4d78-a28d-bf179142ee67}, !- Handle
  OfficeMedium BLDG_LIGHT_SCH_2004,       !- Name
  {6fc85f50-1a30-4cb0-976f-3a6c2bb24d35}, !- Schedule Type Limits Name
  {a21838f6-bb86-409c-a59d-1b3d60dfcb62}, !- Default Day Schedule Name
  {cafdf8d1-0bec-40bb-8316-3a343b117f6e}, !- Summer Design Day Schedule Name
  {b63258a6-53ac-4909-8a3a-3cfdcba519f7}; !- Winter Design Day Schedule Name

OS:Schedule:Day,
  {a21838f6-bb86-409c-a59d-1b3d60dfcb62}, !- Handle
  Schedule Day 5,                         !- Name
  {6fc85f50-1a30-4cb0-976f-3a6c2bb24d35}, !- Schedule Type Limits Name
  ,                                       !- Interpolate to Timestep
  24,                                     !- Hour 1
  0,                                      !- Minute 1
  0;                                      !- Value Until Time 1

OS:Schedule:Rule,
  {aa1841a2-27fe-4ef7-85d3-f0f87d685167}, !- Handle
  Schedule Rule 4,                        !- Name
  {dc2f0405-6c57-4d78-a28d-bf179142ee67}, !- Schedule Ruleset Name
  2,                                      !- Rule Order
  {8dd45717-7e02-4d72-ab50-1f9a1d75ea1e}, !- Day Schedule Name
  ,                                       !- Apply Sunday
  ,                                       !- Apply Monday
  ,                                       !- Apply Tuesday
  ,                                       !- Apply Wednesday
  ,                                       !- Apply Thursday
  ,                                       !- Apply Friday
  Yes,                                    !- Apply Saturday
  ,                                       !- Apply Holiday
  DateRange,                              !- Date Specification Type