
OS:Version,
  {b1c3407e-7367-4c34-b47c-9fdad8db136b}, !- Handle
  2.8.1;                                  !- Version Identifier

OS:Facility,
  {fe9254b2-c123-4887-a65b-afd1138f3c93}; !- Handle

OS:Site,
  {a8079990-6975-4541-a70f-cba0036c0dfe}, !- Handle
  Buffalo Niagara Intl Ap_NY_USA,         !- Name
  42.815256692803,                        !- Latitude {deg}
  -78.8507825762069,                      !- Longitude {deg}
  -5,                                     !- Time Zone {hr}
  215,                                    !- Elevation {m}
  City;                                   !- Terrain

OS:SimulationControl,
  {da3d97c0-7baf-430f-b014-00cbbab830ec}, !- Handle
  ,                                       !- Do Zone Sizing Calculation
  ,                                       !- Do System Sizing Calculation
  ,                                       !- Do Plant Sizing Calculation
  No,                                     !- Run Simulation for Sizing Periods
  Yes;                                    !- Run Simulation for Weather File Run Periods

OS:Sizing:Parameters,
  {5ff28f0b-2224-4217-bb84-df40430630f1}, !- Handle
  1.25,                                   !- Heating Sizing Factor
  1.15;                                   !- Cooling Sizing Factor

OS:Timestep,
  {fdd6282c-3711-4bf2-b63c-761b00d877f8}, !- Handle
  2;                                      !- Number of Timesteps per Hour

OS:ShadowCalculation,
  {9de9d632-3d28-41e5-9986-1fa5245948a1}, !- Handle
  20,                                     !- Calculation Frequency
  15000;                                  !- Maximum Figures in Shadow Overlap Calculations

OS:HeatBalanceAlgorithm,
  {a19fde42-9e1b-4def-9ad1-f534008d42aa}, !- Handle
  ConductionTransferFunction,             !- Algorithm
  200;                                    !- Surface Temperature Upper Limit {C}

OS:RunPeriod,
  {6ab9b3e4-2ba7-4147-9b56-ad18f5d3545d}, !- Handle
  Run Period 1,                           !- Name
  6,                                      !- Begin Month
  1,                                      !- Begin Day of Month
  8,                                      !- End Month
  1,                                      !- End Day of Month
  ,                                       !- Use Weather File Holidays and Special Days
  ,                                       !- Use Weather File Daylight Saving Period
  ,                                       !- Apply Weekend Holiday Rule
  ,                                       !- Use Weather File Rain Indicators
  ,                                       !- Use Weather File Snow Indicators
  ;                                       !- Number of Times Runperiod to be Repeated

OS:LifeCycleCost:Parameters,
  {abf23e8c-dcc8-48dc-94a7-ca69f770185f}, !- Handle
  ,                                       !- Analysis Type
  ,                                       !- Discounting Convention
  ,                                       !- Inflation Approach
  ,                                       !- Real Discount Rate
  ,                                       !- Nominal Discount Rate
  ,                                       !- Inflation
  ,                                       !- Base Date Month
  ,                                       !- Base Date Year
  ,                                       !- Service Date Month
  ,                                       !- Service Date Year
  ;                                       !- Length of Study Period in Years

OS:YearDescription,
  {da6b06ac-8563-4481-9150-5b9dad6754df}, !- Handle
  2019,                                   !- Calendar Year
  ,                                       !- Day of Week for Start Day
  ;                                       !- Is Leap Year

OS:WeatherFile,
  {ab9ee0f6-2105-4e4d-8e47-ab4dd977ab53}, !- Handle
  Buffalo Niagara Intl Ap,                !- City
  NY,                                     !- State Province Region
  USA,                                    !- Country
  TMY3,                                   !- Data Source
  725280,                                 !- WMO Number
  42.93,                                  !- Latitude {deg}
  -78.73,                                 !- Longitude {deg}
  -5,                                     !- Time Zone {hr}
  215,                                    !- Elevation {m}
  file:///C:/gitrepos/urbanopt-example-geojson-project/weather/USA_NY_Buffalo-Greater.Buffalo.Intl.AP.725280_TMY3.epw, !- Url
  ;                                       !- Checksum

OS:Site:WaterMainsTemperature,
  {5f417dbc-4b91-484f-9b74-6683b37ac227}, !- Handle
  Correlation,                            !- Calculation Method
  ,                                       !- Temperature Schedule Name
  8.96666666666667,                       !- Annual Average Outdoor Air Temperature {C}
  26.2;                                   !- Maximum Difference In Monthly Average Outdoor Air Temperatures {deltaC}

OS:SizingPeriod:DesignDay,
  {abe59125-f323-48f1-b761-d559991549d2}, !- Handle
  Buffalo Niagara Intl Ap Ann Htg 99.6% Condns DB, !- Name
  -16.3,                                  !- Maximum Dry-Bulb Temperature {C}
  0,                                      !- Daily Dry-Bulb Temperature Range {deltaC}
  -16.3,                                  !- Humidity Indicating Conditions at Maximum Dry-Bulb
  98769,                                  !- Barometric Pressure {Pa}
  5.1,                                    !- Wind Speed {m/s}
  270,                                    !- Wind Direction {deg}
  0,                                      !- Sky Clearness
  0,                                      !- Rain Indicator
  0,                                      !- Snow Indicator
  21,                                     !- Day of Month
  1,                                      !- Month
  WinterDesignDay,                        !- Day Type
  0,                                      !- Daylight Saving Time Indicator
  Wetbulb,                                !- Humidity Indicating Type
  ,                                       !- Humidity Indicating Day Schedule Name
  DefaultMultipliers,                     !- Dry-Bulb Temperature Range Modifier Type
  ,                                       !- Dry-Bulb Temperature Range Modifier Schedule Name
  ASHRAEClearSky;                         !- Solar Model Indicator

OS:SizingPeriod:DesignDay,
  {1ea66a80-8e16-41f2-b676-60da52d818f6}, !- Handle
  Buffalo Niagara Intl Ap Ann Clg .4% Condns DB=>MWB, !- Name
  30.3,                                   !- Maximum Dry-Bulb Temperature {C}
  9.3,                                    !- Daily Dry-Bulb Temperature Range {deltaC}
  21.8,                                   !- Humidity Indicating Conditions at Maximum Dry-Bulb
  98769,                                  !- Barometric Pressure {Pa}
  5.7,                                    !- Wind Speed {m/s}
  240,                                    !- Wind Direction {deg}
  0,                                      !- Sky Clearness
  0,                                      !- Rain Indicator
  0,                                      !- Snow Indicator
  21,                                     !- Day of Month
  7,                                      !- Month
  SummerDesignDay,                        !- Day Type
  0,                                      !- Daylight Saving Time Indicator
  Wetbulb,                                !- Humidity Indicating Type
  ,                                       !- Humidity Indicating Day Schedule Name
  DefaultMultipliers,                     !- Dry-Bulb Temperature Range Modifier Type
  ,                                       !- Dry-Bulb Temperature Range Modifier Schedule Name
  ASHRAETau,                              !- Solar Model Indicator
  ,                                       !- Beam Solar Day Schedule Name
  ,                                       !- Diffuse Solar Day Schedule Name
  0.462,                                  !- ASHRAE Taub {dimensionless}
  2.001;                                  !- ASHRAE Taud {dimensionless}

OS:SizingPeriod:DesignDay,
  {01a3ed05-e4b9-464d-88db-6746c87a918e}, !- Handle
  Buffalo Niagara Intl Ap Ann Clg .4% Condns WB=>MDB, !- Name
  27.8,                                   !- Maximum Dry-Bulb Temperature {C}
  9.3,                                    !- Daily Dry-Bulb Temperature Range {deltaC}
  23.8,                                   !- Humidity Indicating Conditions at Maximum Dry-Bulb
  98769,                                  !- Barometric Pressure {Pa}
  5.7,                                    !- Wind Speed {m/s}
  240,                                    !- Wind Direction {deg}
  0,                                      !- Sky Clearness
  0,                                      !- Rain Indicator
  0,                                      !- Snow Indicator
  21,                                     !- Day of Month
  7,                                      !- Month
  SummerDesignDay,                        !- Day Type
  0,                                      !- Daylight Saving Time Indicator
  Wetbulb,                                !- Humidity Indicating Type
  ,                                       !- Humidity Indicating Day Schedule Name
  DefaultMultipliers,                     !- Dry-Bulb Temperature Range Modifier Type
  ,                                       !- Dry-Bulb Temperature Range Modifier Schedule Name
  ASHRAETau,                              !- Solar Model Indicator
  ,                                       !- Beam Solar Day Schedule Name
  ,                                       !- Diffuse Solar Day Schedule Name
  0.462,                                  !- ASHRAE Taub {dimensionless}
  2.001;                                  !- ASHRAE Taud {dimensionless}

OS:ClimateZones,
  {e7c6ecb6-b648-4f77-82da-219dd61be418}, !- Handle
  ,                                       !- Active Institution
  ,                                       !- Active Year
  ASHRAE,                                 !- Climate Zone Institution Name 1
  ANSI/ASHRAE Standard 169,               !- Climate Zone Document Name 1
  2006,                                   !- Climate Zone Document Year 1
  6A;                                     !- Climate Zone Value 1

OS:RunPeriodControl:DaylightSavingTime,
  {377449bb-c410-46ba-896a-e937e202d82e}, !- Handle
  2nd Sunday in March,                    !- Start Date
  1st Sunday in November;                 !- End Date

OS:Lights:Definition,
  {01ff5bfe-d0b3-4d1f-98fc-7fcf16ce3ee7}, !- Handle
  Outpatient ElevatorPumpRoom Lights Definition, !- Name
  Watts/Area,                             !- Design Level Calculation Method
  ,                                       !- Lighting Level {W}
  16.1458656250646,                       !- Watts per Space Floor Area {W/m2}
  ,                                       !- Watts per Person {W/person}
  0.7,                                    !- Fraction Radiant
  0.2;                                    !- Fraction Visible

OS:AdditionalProperties,
  {1e3f92d0-77d7-4185-994b-d5913f1b958d}, !- Handle
  {01ff5bfe-d0b3-4d1f-98fc-7fcf16ce3ee7}, !- Object Name
  lpd_fraction_linear_fluorescent,        !- Feature Name 1
  Double,                                 !- Feature Data Type 1
  1;                                      !- Feature Value 1

OS:DesignSpecification:OutdoorAir,
  {33b99ccc-213e-4058-8fb7-fcb7289690cd}, !- Handle
  Outpatient ElevatorPumpRoom Ventilation, !- Name
  ,                                       !- Outdoor Air Method
  0,                                      !- Outdoor Air Flow per Person {m3/s-person}
  0,                                      !- Outdoor Air Flow per Floor Area {m3/s-m2}
  ,                                       !- Outdoor Air Flow Rate {m3/s}
  0,                                      !- Outdoor Air Flow Air Changes per Hour {1/hr}
  ;                                       !- Outdoor Air Flow Rate Fraction Schedule Name

OS:DefaultScheduleSet,
  {1053b56f-7072-4537-a825-47f06e643074}, !- Handle
  Outpatient ElevatorPumpRoom Schedule Set, !- Name
  ,                                       !- Hours of Operation Schedule Name
  {dc2246e3-c894-4cc7-91ff-4835911dd95e}, !- Number of People Schedule Name
  {42acdec3-e79d-4f44-8b06-059fab8dfe72}, !- People Activity Level Schedule Name
  {be0ee055-6bb3-4b87-91c5-c0f3c555da8e}, !- Lighting Schedule Name
  {43df48d9-f256-4aa1-870d-a1b1d53dc804}, !- Electric Equipment Schedule Name
  ,                                       !- Gas Equipment Schedule Name
  ,                                       !- Hot Water Equipment Schedule Name
  {0ae9aad9-4d6a-4b9e-b8e8-12599795796d}, !- Infiltration Schedule Name
  ,                                       !- Steam Equipment Schedule Name
  ;                                       !- Other Equipment Schedule Name

OS:Schedule:Ruleset,
  {dc2246e3-c894-4cc7-91ff-4835911dd95e}, !- Handle
  OutPatientHealthCare BLDG_OCC_SCH,      !- Name
  {876608c2-9fba-4af7-b476-c256f8731096}, !- Schedule Type Limits Name
  {da51614e-a369-48bb-9c96-de5ab9a8d063}, !- Default Day Schedule Name
  {d3ad0a5d-5915-4a95-b279-37ef81c9dac4}, !- Summer Design Day Schedule Name
  {c43d232f-0e4c-42db-8540-87f9be0f38c0}; !- Winter Design Day Schedule Name

OS:Schedule:Day,
  {da51614e-a369-48bb-9c96-de5ab9a8d063}, !- Handle
  OutPatientHealthCare BLDG_OCC_SCH Default, !- Name
  {876608c2-9fba-4af7-b476-c256f8731096}, !- Schedule Type Limits Name
  ,                                       !- Interpolate to Timestep
  8,                                      !- Hour 1
  0,                                      !- Minute 1
  0,                                      !- Value Until Time 1
  17,                                     !- Hour 2
  0,                                      !- Minute 2
  0.05,                                   !- Value Until Time 2
  24,                                     !- Hour 3
  0,                                      !- Minute 3
  0;                                      !- Value Until Time 3

OS:Schedule:Day,
  {d3ad0a5d-5915-4a95-b279-37ef81c9dac4}, !- Handle
  OutPatientHealthCare BLDG_OCC_SCH Summer Design Day, !- Name
  {876608c2-9fba-4af7-b476-c256f8731096}, !- Schedule Type Limits Name
  ,                                       !- Interpolate to Timestep
  4,                                      !- Hour 1
  0,                                      !- Minute 1
  0.05,                                   !- Value Until Time 1
  6,                                      !- Hour 2
  0,                                      !- Minute 2
  0.2,                                    !- Value Until Time 2
  7,                                      !- Hour 3
  0,                                      !- Minute 3
  0.5,                                    !- Value Until Time 3
  18,                                     !- Hour 4
  0,                                      !- Minute 4
  0.9,                                    !- Value Until Time 4
  20,                                     !- Hour 5
  0,                                      !- Minute 5
  0.5,                                    !- Value Until Time 5
  22,                                     !- Hour 6
  0,                                      !- Minute 6
  0.2,                                    !- Value Until Time 6
  24,                                     !- Hour 7
  0,                                      !- Minute 7
  0.05;                                   !- Value Until Time 7

OS:Schedule:Rule,
  {81e45e71-1dea-4314-931c-29f48b910c9b}, !- Handle
  Schedule Rule 1,                        !- Name
  {dc2246e3-c894-4cc7-91ff-4835911dd95e}, !- Schedule Ruleset Name
  1,                                      !- Rule Order
  {599e1783-271e-492f-bc1d-7c69c65e8980}, !- Day Schedule Name
  ,                                       !- Apply Sunday
  Yes,                                    !- Apply Monday
  Yes,                                    !- Apply Tuesday
  Yes,                                    !- Apply Wednesday
  Yes,                                    !- Apply Thursday
  Yes,                                    !- Apply Friday
  ,                                       !- Apply Saturday
  ,                                       !- Apply Holiday
  DateRange,                              !- Date Specification Type
  1,                                      !- Start Month
  1,                                      !- Start Day
  12,                                     !- End Month
  31;                                     !- End Day

OS:Schedule:Day,
  {599e1783-271e-492f-bc1d-7c69c65e8980}, !- Handle
  OutPatientHealthCare BLDG_OCC_SCH SmrDsn|Wkdy Day, !- Name
  {876608c2-9fba-4af7-b476-c256f8731096}, !- Schedule Type Limits Name
  ,                                       !- Interpolate to Timestep
  4,                                      !- Hour 1
  0,                                      !- Minute 1
  0.05,                                   !- Value Until Time 1
  6,                                      !- Hour 2
  0,                                      !- Minute 2
  0.2,                                    !- Value Until Time 2
  7,                                      !- Hour 3
  0,                                      !- Minute 3
  0.5,                                    !- Value Until Time 3
  18,                                     !- Hour 4
  0,                                      !- Minute 4
  0.9,                                    !- Value Until Time 4
  20,                                     !- Hour 5
  0,                                      !- Minute 5
  0.5,                                    !- Value Until Time 5
  22,                                     !- Hour 6
  0,                                      !- Minute 6
  0.2,                                    !- Value Until Time 6
  24,                                     !- Hour 7
  0,                                      !- Minute 7
  0.05;                                   !- Value Until Time 7

OS:Schedule:Day,
  {c43d232f-0e4c-42db-8540-87f9be0f38c0}, !- Handle
  OutPatientHealthCare BLDG_OCC_SCH Winter Design Day, !- Name
  {876608c2-9fba-4af7-b476-c256f8731096}, !- Schedule Type Limits Name
  ,                                       !- Interpolate to Timestep
  7,                                      !- Hour 1
  0,                                      !- Minute 1
  0.05,                                   !- Value Until Time 1
  9,                                      !- Hour 2
  0,                                      !- Minute 2
  0.2,                                    !- Value Until Time 2
  15,                                     !- Hour 3
  0,                                      !- Minute 3
  0.3,                                    !- Value Until Time 3
  20,                                     !- Hour 4
  0,                                      !- Minute 4
  0.2,                                    !- Value Until Time 4
  24,                                     !- Hour 5
  0,                                      !- Minute 5
  0.05;                                   !- Value Until Time 5

OS:Schedule:Rule,
  {5bd0f3a7-7039-4292-92cd-04d14a695118}, !- Handle
  Schedule Rule 2,                        !- Name
  {dc2246e3-c894-4cc7-91ff-4835911dd95e}, !- Schedule Ruleset Name
  0,                                      !- Rule Order
  {81127e38-ff2e-443f-a392-ad735e9fd83c}, !- Day Schedule Name
  ,                                       !- Apply Sunday
  ,                                       !- Apply Monday
  ,                                       !- Apply Tuesday
  ,                                       !- Apply Wednesday
  ,                                       !- Apply Thursday
  ,                                       !- Apply Friday
  Yes,                                    !- Apply Saturday
  ,                                       !- Apply Holiday
  DateRange,                              !- Date Specification Type
  1,                                      !- Start Month
  1,                                      !- Start Day
  12,                                     !- End Month
  31;                                     !- End Day

OS:Schedule:Day,
  {81127e38-ff2e-443f-a392-ad735e9fd83c}, !- Handle
  OutPatientHealthCare BLDG_OCC_SCH WntrDsn|Sat Day, !- Name
  {876608c2-9fba-4af7-b476-c256f8731096}, !- Schedule Type Limits Name
  ,                                       !- Interpolate to Timestep
  7,                                      !- Hour 1
  0,                                      !- Minute 1
  0.05,                                   !- Value Until Time 1
  9,                                      !- Hour 2
  0,                                      !- Minute 2
  0.2,                                    !- Value Until Time 2
  15,                                     !- Hour 3
  0,                                      !- Minute 3
  0.3,                                    !- Value Until Time 3
  20,                                     !- Hour 4
  0,                                      !- Minute 4
  0.2,                                    !- Value Until Time 4
  24,                                     !- Hour 5
  0,                                      !- Minute 5
  0.05;                                   !- Value Until Time 5

OS:ScheduleTypeLimits,
  {876608c2-9fba-4af7-b476-c256f8731096}, !- Handle
  Fractional,                             !- Name
  0,                                      !- Lower Limit Value
  1,                                      !- Upper Limit Value
  Continuous;                             !- Numeric Type

OS:Schedule:Ruleset,
  {42acdec3-e79d-4f44-8b06-059fab8dfe72}, !- Handle
  OutPatientHealthCare ACTIVITY_SCH,      !- Name
  {59451bde-1338-42c4-8ba0-910bdba4873f}, !- Schedule Type Limits Name
  {c80d3150-d1b5-48c8-90e6-73ccae1ada44}, !- Default Day Schedule Name
  {b607ce28-3708-4dd8-b4a8-d69adef8239b}, !- Summer Design Day Schedule Name
  {a1274ecf-30e6-484c-a98c-9e7e4b1c5eeb}; !- Winter Design Day Schedule Name

OS:Schedule:Day,
  {c80d3150-d1b5-48c8-90e6-73ccae1ada44}, !- Handle
  OutPatientHealthCare ACTIVITY_SCH Default, !- Name
  {59451bde-1338-42c4-8ba0-910bdba4873f}, !- Schedule Type Limits Name
  ,                                       !- Interpolate to Timestep
  24,                                     !- Hour 1
  0,                                      !- Minute 1
  120;                                    !- Value Until Time 1

OS:Schedule:Day,
  {a1274ecf-30e6-484c-a98c-9e7e4b1c5eeb}, !- Handle
  OutPatientHealthCare ACTIVITY_SCH Winter Design Day, !- Name
  {59451bde-1338-42c4-8ba0-910bdba4873f}, !- Schedule Type Limits Name
  ,                                       !- Interpolate to Timestep
  24,                                     !- Hour 1
  0,                                      !- Minute 1
  120;                                    !- Value Until Time 1

OS:Schedule:Day,
  {b607ce28-3708-4dd8-b4a8-d69adef8239b}, !- Handle
  OutPatientHealthCare ACTIVITY_SCH Summer Design Day, !- Name
  {59451bde-1338-42c4-8ba0-910bdba4873f}, !- Schedule Type Limits Name
  ,                                       !- Interpolate to Timestep
  24,                                     !- Hour 1
  0,                                      !- Minute 1
  120;                                    !- Value Until Time 1

OS:ScheduleTypeLimits,
  {59451bde-1338-42c4-8ba0-910bdba4873f}, !- Handle
  ActivityLevel,                          !- Name
  0,                                      !- Lower Limit Value
  ,                                       !- Upper Limit Value
  Continuous,                             !- Numeric Type
  ActivityLevel;                          !- Unit Type

OS:Schedule:Ruleset,
  {be0ee055-6bb3-4b87-91c5-c0f3c555da8e}, !- Handle
  OutPatientHealthCare BLDG_LIGHT_STORAGE_SCH, !- Name
  {876608c2-9fba-4af7-b476-c256f8731096}, !- Schedule Type Limits Name
  {b052af59-776a-4819-967b-3ce7f24b6f01}, !- Default Day Schedule Name
  {4f3b0e7a-085b-428e-ba27-8be3818e8210}, !- Summer Design Day Schedule Name
  {4430c2ab-35d7-4dd7-a0a9-1c15a9094b3b}; !- Winter Design Day Schedule Name

OS:Schedule:Day,
  {b052af59-776a-4819-967b-3ce7f24b6f01}, !- Handle
  OutPatientHealthCare BLDG_LIGHT_STORAGE_SCH Default, !- Name
  {876608c2-9fba-4af7-b476-c256f8731096}, !- Schedule Type Limits Name
  ,                                       !- Interpolate to Timestep
  8,                                      !- Hour 1
  0,                                      !- Minute 1
  0.05,                                   !- Value Until Time 1
  17,                                     !- Hour 2
  0,                                      !- Minute 2
  0.1,                                    !- Value Until Time 2
  24,                                     !- Hour 3
  0,                                      !- Minute 3
  0.05;                                   !- Value Until Time 3

OS:Schedule:Day,
  {4f3b0e7a-085b-428e-ba27-8be3818e8210}, !- Handle
  OutPatientHealthCare BLDG_LIGHT_STORAGE_SCH Summer Design Day, !- Name
  {876608c2-9fba-4af7-b476-c256f8731096}, !- Schedule Type Limits Name
  ,                                       !- Interpolate to Timestep
  4,                                      !- Hour 1
  0,                                      !- Minute 1
  0.1,                                    !- Value Until Time 1
  6,                                      !- Hour 2
  0,                                      !- Minute 2
  0.3,                                    !- Value Until Time 2
  7,                                      !- Hour 3
  0,                                      !- Minute 3
  0.6,                                    !- Value Until Time 3
  18,                                     !- Hour 4
  0,                                      !- Minute 4
  0.9,                                    !- Value Until Time 4
  20,                                     !- Hour 5
  0,                                      !- Minute 5
  0.6,                                    !- Value Until Time 5
  22,                                     !- Hour 6
  0,                                      !- Minute 6
  0.3,                                    !- Value Until Time 6
  24,                                     !- Hour 7
  0,                                      !- Minute 7
  0.1;                                    !- Value Until Time 7

OS:Schedule:Rule,
  {d565aa1d-d252-4dee-afbc-d240b51821d1}, !- Handle
  Schedule Rule 3,                        !- Name
  {be0ee055-6bb3-4b87-91c5-c0f3c555da8e}, !- Schedule Ruleset Name
  1,                                      !- Rule Order
  {c6287594-6ee1-4155-9300-17237dd00c81}, !- Day Schedule Name
  ,                                       !- Apply Sunday
  Yes,                                    !- Apply Monday
  Yes,                                    !- Apply Tuesday
  Yes,                                    !- Apply Wednesday
  Yes,                                    !- Apply Thursday
  Yes,                                    !- Apply Friday
  ,                                       !- Apply Saturday
  ,                                       !- Apply Holiday
  DateRange,                              !- Date Specification Type
  1,                                      !- Start Month
  1,                                      !- Start Day
  12,                                     !- End Month
  31;                                     !- End Day

OS:Schedule:Day,
  {c6287594-6ee1-4155-9300-17237dd00c81}, !- Handle
  OutPatientHealthCare BLDG_LIGHT_STORAGE_SCH SmrDsn|Wkdy Day, !- Name
  {876608c2-9fba-4af7-b476-c256f8731096}, !- Schedule Type Limits Name
  ,                                       !- Interpolate to Timestep
  4,                                      !- Hour 1
  0,                                      !- Minute 1
  0.1,                                    !- Value Until Time 1
  6,                                      !- Hour 2
  0,                                      !- Minute 2
  0.3,                                    !- Value Until Time 2
  7,                                      !- Hour 3
  0,                                      !- Minute 3
  0.6,                                    !- Value Until Time 3
  18,                                     !- Hour 4
  0,                                      !- Minute 4
  0.9,                                    !- Value Until Time 4
  20,                                     !- Hour 5
  0,                                      !- Minute 5
  0.6,                                    !- Value Until Time 5
  22,                                     !- Hour 6
  0,                                      !- Minute 6
  0.3,                                    !- Value Until Time 6
  24,                                     !- Hour 7
  0,                                      !- Minute 7
  0.1;                                    !- Value Until Time 7

OS:Schedule:Day,
  {4430c2ab-35d7-4dd7-a0a9-1c15a9094b3b}, !- Handle
  OutPatientHealthCare BLDG_LIGHT_STORAGE_SCH Winter Design Day, !- Name
  {876608c2-9fba-4af7-b476-c256f8731096}, !- Schedule Type Limits Name
  ,                                       !- Interpolate to Timestep
  7,                                      !- Hour 1
  0,                                      !- Minute 1
  0.1,                                    !- Value Until Time 1
  9,                                      !- Hour 2
  0,                                      !- Minute 2
  0.3,                                    !- Value Until Time 2
  15,                                     !- Hour 3
  0,                                      !- Minute 3
  0.4,                                    !- Value Until Time 3
  20,                                     !- Hour 4
  0,                                      !- Minute 4
  0.3,                                    !- Value Until Time 4