
OS:Version,
  {1190f94e-d59f-4e2f-8d50-ce78825a578a}, !- Handle
  2.8.1;                                  !- Version Identifier

OS:Facility,
  {0080f66e-4f56-43f0-a966-cefbffd363df}; !- Handle

OS:Site,
  {53968191-9de7-4c61-b860-bc9ad1f4c2af}, !- Handle
  Buffalo Niagara Intl Ap_NY_USA,         !- Name
  42.8160067861328,                       !- Latitude {deg}
  -78.8513213710169,                      !- Longitude {deg}
  -5,                                     !- Time Zone {hr}
  215,                                    !- Elevation {m}
  City;                                   !- Terrain

OS:SimulationControl,
  {781cdaeb-6917-42d1-a3c6-6ceff3fd023b}, !- Handle
  ,                                       !- Do Zone Sizing Calculation
  ,                                       !- Do System Sizing Calculation
  ,                                       !- Do Plant Sizing Calculation
  No,                                     !- Run Simulation for Sizing Periods
  Yes;                                    !- Run Simulation for Weather File Run Periods

OS:Sizing:Parameters,
  {27f4db49-7e90-4b3b-839c-df09e554eda9}, !- Handle
  1.25,                                   !- Heating Sizing Factor
  1.15;                                   !- Cooling Sizing Factor

OS:Timestep,
  {804d0d55-ec8b-4868-ad79-76dd3821e7eb}, !- Handle
  2;                                      !- Number of Timesteps per Hour

OS:ShadowCalculation,
  {c27333a1-67ce-4206-925e-461f83fd58ff}, !- Handle
  20,                                     !- Calculation Frequency
  15000;                                  !- Maximum Figures in Shadow Overlap Calculations

OS:HeatBalanceAlgorithm,
  {25efef60-11c1-4ab3-84a9-b95f78335473}, !- Handle
  ConductionTransferFunction,             !- Algorithm
  200;                                    !- Surface Temperature Upper Limit {C}

OS:RunPeriod,
  {53d47604-3448-4e3d-afca-888933c3352c}, !- Handle
  Run Period 1,                           !- Name
  6,                                      !- Begin Month
  1,                                      !- Begin Day of Month
  8,                                      !- End Month
  1,                                      !- End Day of Month
  ,                                       !- Use Weather File Holidays and Special Days
  ,                                       !- Use Weather File Daylight Saving Period
  ,                                       !- Apply Weekend Holiday Rule
  ,                                       !- Use Weather File Rain Indicators
  ,                                       !- Use Weather File Snow Indicators
  ;                                       !- Number of Times Runperiod to be Repeated

OS:LifeCycleCost:Parameters,
  {5cfbd2f9-f38f-4ea9-adc3-9ab56bf15e38}, !- Handle
  ,                                       !- Analysis Type
  ,                                       !- Discounting Convention
  ,                                       !- Inflation Approach
  ,                                       !- Real Discount Rate
  ,                                       !- Nominal Discount Rate
  ,                                       !- Inflation
  ,                                       !- Base Date Month
  ,                                       !- Base Date Year
  ,                                       !- Service Date Month
  ,                                       !- Service Date Year
  ;                                       !- Length of Study Period in Years

OS:YearDescription,
  {7f886c89-7a35-44c8-a0a6-fa98ba407191}, !- Handle
  2019,                                   !- Calendar Year
  ,                                       !- Day of Week for Start Day
  ;                                       !- Is Leap Year

OS:WeatherFile,
  {53cf18b3-60aa-48f1-9095-1894515a4ae6}, !- Handle
  Buffalo Niagara Intl Ap,                !- City
  NY,                                     !- State Province Region
  USA,                                    !- Country
  TMY3,                                   !- Data Source
  725280,                                 !- WMO Number
  42.93,                                  !- Latitude {deg}
  -78.73,                                 !- Longitude {deg}
  -5,                                     !- Time Zone {hr}
  215,                                    !- Elevation {m}
  file:///C:/gitrepos/urbanopt-example-geojson-project/weather/USA_NY_Buffalo-Greater.Buffalo.Intl.AP.725280_TMY3.epw, !- Url
  ;                                       !- Checksum

OS:Site:WaterMainsTemperature,
  {567c29e2-7452-441e-a26b-95a4b17052cd}, !- Handle
  Correlation,                            !- Calculation Method
  ,                                       !- Temperature Schedule Name
  8.96666666666667,                       !- Annual Average Outdoor Air Temperature {C}
  26.2;                                   !- Maximum Difference In Monthly Average Outdoor Air Temperatures {deltaC}

OS:SizingPeriod:DesignDay,
  {fa826599-56d9-43db-9960-c2fb824d9d69}, !- Handle
  Buffalo Niagara Intl Ap Ann Htg 99.6% Condns DB, !- Name
  -16.3,                                  !- Maximum Dry-Bulb Temperature {C}
  0,                                      !- Daily Dry-Bulb Temperature Range {deltaC}
  -16.3,                                  !- Humidity Indicating Conditions at Maximum Dry-Bulb
  98769,                                  !- Barometric Pressure {Pa}
  5.1,                                    !- Wind Speed {m/s}
  270,                                    !- Wind Direction {deg}
  0,                                      !- Sky Clearness
  0,                                      !- Rain Indicator
  0,                                      !- Snow Indicator
  21,                                     !- Day of Month
  1,                                      !- Month
  WinterDesignDay,                        !- Day Type
  0,                                      !- Daylight Saving Time Indicator
  Wetbulb,                                !- Humidity Indicating Type
  ,                                       !- Humidity Indicating Day Schedule Name
  DefaultMultipliers,                     !- Dry-Bulb Temperature Range Modifier Type
  ,                                       !- Dry-Bulb Temperature Range Modifier Schedule Name
  ASHRAEClearSky;                         !- Solar Model Indicator

OS:SizingPeriod:DesignDay,
  {8fc04d09-d809-474a-8b5a-282f19033f25}, !- Handle
  Buffalo Niagara Intl Ap Ann Clg .4% Condns DB=>MWB, !- Name
  30.3,                                   !- Maximum Dry-Bulb Temperature {C}
  9.3,                                    !- Daily Dry-Bulb Temperature Range {deltaC}
  21.8,                                   !- Humidity Indicating Conditions at Maximum Dry-Bulb
  98769,                                  !- Barometric Pressure {Pa}
  5.7,                                    !- Wind Speed {m/s}
  240,                                    !- Wind Direction {deg}
  0,                                      !- Sky Clearness
  0,                                      !- Rain Indicator
  0,                                      !- Snow Indicator
  21,                                     !- Day of Month
  7,                                      !- Month
  SummerDesignDay,                        !- Day Type
  0,                                      !- Daylight Saving Time Indicator
  Wetbulb,                                !- Humidity Indicating Type
  ,                                       !- Humidity Indicating Day Schedule Name
  DefaultMultipliers,                     !- Dry-Bulb Temperature Range Modifier Type
  ,                                       !- Dry-Bulb Temperature Range Modifier Schedule Name
  ASHRAETau,                              !- Solar Model Indicator
  ,                                       !- Beam Solar Day Schedule Name
  ,                                       !- Diffuse Solar Day Schedule Name
  0.462,                                  !- ASHRAE Taub {dimensionless}
  2.001;                                  !- ASHRAE Taud {dimensionless}

OS:SizingPeriod:DesignDay,
  {be4ab04f-dd7b-4ad3-b57c-2d318932af8a}, !- Handle
  Buffalo Niagara Intl Ap Ann Clg .4% Condns WB=>MDB, !- Name
  27.8,                                   !- Maximum Dry-Bulb Temperature {C}
  9.3,                                    !- Daily Dry-Bulb Temperature Range {deltaC}
  23.8,                                   !- Humidity Indicating Conditions at Maximum Dry-Bulb
  98769,                                  !- Barometric Pressure {Pa}
  5.7,                                    !- Wind Speed {m/s}
  240,                                    !- Wind Direction {deg}
  0,                                      !- Sky Clearness
  0,                                      !- Rain Indicator
  0,                                      !- Snow Indicator
  21,                                     !- Day of Month
  7,                                      !- Month
  SummerDesignDay,                        !- Day Type
  0,                                      !- Daylight Saving Time Indicator
  Wetbulb,                                !- Humidity Indicating Type
  ,                                       !- Humidity Indicating Day Schedule Name
  DefaultMultipliers,                     !- Dry-Bulb Temperature Range Modifier Type
  ,                                       !- Dry-Bulb Temperature Range Modifier Schedule Name
  ASHRAETau,                              !- Solar Model Indicator
  ,                                       !- Beam Solar Day Schedule Name
  ,                                       !- Diffuse Solar Day Schedule Name
  0.462,                                  !- ASHRAE Taub {dimensionless}
  2.001;                                  !- ASHRAE Taud {dimensionless}

OS:ClimateZones,
  {4efd2c35-29b7-4ec0-aec3-067a94ec6d21}, !- Handle
  ,                                       !- Active Institution
  ,                                       !- Active Year
  ASHRAE,                                 !- Climate Zone Institution Name 1
  ANSI/ASHRAE Standard 169,               !- Climate Zone Document Name 1
  2006,                                   !- Climate Zone Document Year 1
  6A;                                     !- Climate Zone Value 1

OS:RunPeriodControl:DaylightSavingTime,
  {da71a328-9dec-49b9-8626-b00f817c67fd}, !- Handle
  2nd Sunday in March,                    !- Start Date
  1st Sunday in November;                 !- End Date

OS:People:Definition,
  {1a094af2-1004-4967-953b-c192662e2cb9}, !- Handle
  Hospital Corridor People Definition,    !- Name
  People/Area,                            !- Number of People Calculation Method
  ,                                       !- Number of People {people}
  0.0107639104167097,                     !- People per Space Floor Area {person/m2}
  ,                                       !- Space Floor Area per Person {m2/person}
  0.3;                                    !- Fraction Radiant

OS:Schedule:Ruleset,
  {63637c9c-7150-48cb-abac-bff7f56c798a}, !- Handle
  Clothing Schedule,                      !- Name
  {1f63d7fd-ea30-4fed-8c4b-f4feb00aeea6}, !- Schedule Type Limits Name
  {d044b946-4ac7-4d3a-ba68-269a75b85c6d}; !- Default Day Schedule Name

OS:Schedule:Day,
  {d044b946-4ac7-4d3a-ba68-269a75b85c6d}, !- Handle
  Clothing Schedule Default Winter Clothes, !- Name
  {1f63d7fd-ea30-4fed-8c4b-f4feb00aeea6}, !- Schedule Type Limits Name
  ,                                       !- Interpolate to Timestep
  24,                                     !- Hour 1
  0,                                      !- Minute 1
  1;                                      !- Value Until Time 1

OS:Schedule:Rule,
  {dad54944-e7fb-4e19-a017-077831ef4c80}, !- Handle
  Schedule Rule 1,                        !- Name
  {63637c9c-7150-48cb-abac-bff7f56c798a}, !- Schedule Ruleset Name
  0,                                      !- Rule Order
  {fc6865b2-8609-412b-8160-8334bf9e25e3}, !- Day Schedule Name
  ,                                       !- Apply Sunday
  ,                                       !- Apply Monday
  ,                                       !- Apply Tuesday
  ,                                       !- Apply Wednesday
  ,                                       !- Apply Thursday
  ,                                       !- Apply Friday
  ,                                       !- Apply Saturday
  ,                                       !- Apply Holiday
  DateRange,                              !- Date Specification Type
  5,                                      !- Start Month
  1,                                      !- Start Day
  9,                                      !- End Month
  30;                                     !- End Day

OS:Schedule:Day,
  {fc6865b2-8609-412b-8160-8334bf9e25e3}, !- Handle
  Clothing Schedule Summer Clothes,       !- Name
  {1f63d7fd-ea30-4fed-8c4b-f4feb00aeea6}, !- Schedule Type Limits Name
  ,                                       !- Interpolate to Timestep
  24,                                     !- Hour 1
  0,                                      !- Minute 1
  0.5;                                    !- Value Until Time 1

OS:ScheduleTypeLimits,
  {1f63d7fd-ea30-4fed-8c4b-f4feb00aeea6}, !- Handle
  ClothingInsulation,                     !- Name
  0,                                      !- Lower Limit Value
  ,                                       !- Upper Limit Value
  Continuous,                             !- Numeric Type
  ClothingInsulation;                     !- Unit Type

OS:Schedule:Ruleset,
  {1999ef88-ee47-41f7-958d-63759249d6eb}, !- Handle
  Air Velocity Schedule,                  !- Name
  {63c19720-eda1-4fc1-9da5-6e54f036f146}, !- Schedule Type Limits Name
  {aaf60a99-bec9-484a-9208-7d4d0a7e85ac}; !- Default Day Schedule Name

OS:Schedule:Day,
  {aaf60a99-bec9-484a-9208-7d4d0a7e85ac}, !- Handle
  Air Velocity Schedule Default,          !- Name
  {63c19720-eda1-4fc1-9da5-6e54f036f146}, !- Schedule Type Limits Name
  ,                                       !- Interpolate to Timestep
  24,                                     !- Hour 1
  0,                                      !- Minute 1
  0.2;                                    !- Value Until Time 1

OS:ScheduleTypeLimits,
  {63c19720-eda1-4fc1-9da5-6e54f036f146}, !- Handle
  Velocity,                               !- Name
  0,                                      !- Lower Limit Value
  ,                                       !- Upper Limit Value
  Continuous,                             !- Numeric Type
  Velocity;                               !- Unit Type

OS:Schedule:Ruleset,
  {6ecfc295-bb07-431c-9c44-d8de686ec979}, !- Handle
  Work Efficiency Schedule,               !- Name
  {4292a731-ac25-4a4e-8fde-d474805c8a6b}, !- Schedule Type Limits Name
  {9ed988bf-042b-4a40-a129-3d69cf9ef1fd}; !- Default Day Schedule Name

OS:Schedule:Day,
  {9ed988bf-042b-4a40-a129-3d69cf9ef1fd}, !- Handle
  Work Efficiency Schedule Default,       !- Name
  {4292a731-ac25-4a4e-8fde-d474805c8a6b}, !- Schedule Type Limits Name
  ,                                       !- Interpolate to Timestep
  24,                                     !- Hour 1
  0,                                      !- Minute 1
  0;                                      !- Value Until Time 1

OS:ScheduleTypeLimits,
  {4292a731-ac25-4a4e-8fde-d474805c8a6b}, !- Handle
  Fractional,                             !- Name
  0,                                      !- Lower Limit Value
  1,                                      !- Upper Limit Value
  Continuous;                             !- Numeric Type

OS:Lights:Definition,
  {eafa5c21-ba99-45f7-b541-b25b6f25ef76}, !- Handle
  Hospital Corridor Lights Definition,    !- Name
  Watts/Area,                             !- Design Level Calculation Method
  ,                                       !- Lighting Level {W}
  10.7639104167097,                       !- Watts per Space Floor Area {W/m2}
  ,                                       !- Watts per Person {W/person}
  0.7,                                    !- Fraction Radiant
  0.2;                                    !- Fraction Visible

OS:AdditionalProperties,
  {aa94a2d3-e075-417e-8c0d-ed4dafb18860}, !- Handle
  {eafa5c21-ba99-45f7-b541-b25b6f25ef76}, !- Object Name
  lpd_fraction_linear_fluorescent,        !- Feature Name 1
  Double,                                 !- Feature Data Type 1
  1;                                      !- Feature Value 1

OS:DesignSpecification:OutdoorAir,
  {de43109e-f0c0-49a2-bfbe-6a398a66d856}, !- Handle
  Hospital Corridor Ventilation,          !- Name
  Sum,                                    !- Outdoor Air Method
  ,                                       !- Outdoor Air Flow per Person {m3/s-person}
  0.000254,                               !- Outdoor Air Flow per Floor Area {m3/s-m2}
  ,                                       !- Outdoor Air Flow Rate {m3/s}
  ,                                       !- Outdoor Air Flow Air Changes per Hour {1/hr}
  ;                                       !- Outdoor Air Flow Rate Fraction Schedule Name

OS:DefaultScheduleSet,
  {8be7d758-821c-4d5f-a338-e757884af469}, !- Handle
  Hospital Corridor Schedule Set,         !- Name
  ,                                       !- Hours of Operation Schedule Name
  {01033615-147f-4965-a455-6e1f79dcf6ac}, !- Number of People Schedule Name
  {5a9c2d38-db60-424c-afac-e39d9af842a8}, !- People Activity Level Schedule Name
  {9e7eaa9d-a792-48eb-9e95-b97b8a904dbd}, !- Lighting Schedule Name
  {1e60e4da-10b2-41c3-b69d-6d000a39ad62}, !- Electric Equipment Schedule Name
  ,                                       !- Gas Equipment Schedule Name
  ,                                       !- Hot Water Equipment Schedule Name
  {f577ce6e-36b0-4e4f-8758-596b7da7400b}, !- Infiltration Schedule Name
  ,                                       !- Steam Equipment Schedule Name
  ;                                       !- Other Equipment Schedule Name

OS:Schedule:Ruleset,
  {01033615-147f-4965-a455-6e1f79dcf6ac}, !- Handle
  Hospital BLDG_OCC_SCH,                  !- Name
  {4292a731-ac25-4a4e-8fde-d474805c8a6b}, !- Schedule Type Limits Name
  {161d0df9-cdb5-4ff1-8f3d-2b7b81b8e151}, !- Default Day Schedule Name
  {082cef8b-261c-4696-b54f-148f73a52657}, !- Summer Design Day Schedule Name
  {4fa044e3-55e1-4978-8ad3-b20ba4f173e2}; !- Winter Design Day Schedule Name

OS:Schedule:Day,
  {161d0df9-cdb5-4ff1-8f3d-2b7b81b8e151}, !- Handle
  Hospital BLDG_OCC_SCH Default,          !- Name
  {4292a731-ac25-4a4e-8fde-d474805c8a6b}, !- Schedule Type Limits Name
  ,                                       !- Interpolate to Timestep
  8,                                      !- Hour 1
  0,                                      !- Minute 1
  0,                                      !- Value Until Time 1
  16,                                     !- Hour 2
  0,                                      !- Minute 2
  0.05,                                   !- Value Until Time 2
  24,                                     !- Hour 3
  0,                                      !- Minute 3
  0;                                      !- Value Until Time 3

OS:Schedule:Rule,
  {a20f9de7-5836-44d2-8f1f-6c8085d728ae}, !- Handle
  Schedule Rule 2,                        !- Name
  {01033615-147f-4965-a455-6e1f79dcf6ac}, !- Schedule Ruleset Name
  1,                                      !- Rule Order
  {6b3e54b4-36ab-4331-b9be-20f18faf6999}, !- Day Schedule Name
  ,                                       !- Apply Sunday
  ,                                       !- Apply Monday
  ,                                       !- Apply Tuesday
  ,                                       !- Apply Wednesday
  ,                                       !- Apply Thursday
  ,                                       !- Apply Friday
  Yes,                                    !- Apply Saturday
  ,                                       !- Apply Holiday
  DateRange,                              !- Date Specification Type
  1,                                      !- Start Month
  1,                                      !- Start Day
  12,                                     !- End Month
  31;                                     !- End Day

OS:Schedule:Day,
  {6b3e54b4-36ab-4331-b9be-20f18faf6999}, !- Handle
  Hospital BLDG_OCC_SCH Sat Day,          !- Name
  {4292a731-ac25-4a4e-8fde-d474805c8a6b}, !- Schedule Type Limits Name
  ,                                       !- Interpolate to Timestep
  7,                                      !- Hour 1
  0,                                      !- Minute 1
  0,                                      !- Value Until Time 1
  8,                                      !- Hour 2
  0,                                      !- Minute 2
  0.1,                                    !- Value Until Time 2
  9,                                      !- Hour 3
  0,                                      !- Minute 3
  0.3,                                    !- Value Until Time 3
  17,                                     !- Hour 4
  0,                                      !- Minute 4
  0.4,                                    !- Value Until Time 4
  19,                                     !- Hour 5
  0,                                      !- Minute 5
  0.1,                                    !- Value Until Time 5
  24,                                     !- Hour 6
  0,                                      !- Minute 6
  0;                                      !- Value Until Time 6

OS:Schedule:Day,
  {082cef8b-261c-4696-b54f-148f73a52657}, !- Handle
  Hospital BLDG_OCC_SCH Summer Design Day, !- Name
  {4292a731-ac25-4a4e-8fde-d474805c8a6b}, !- Schedule Type Limits Name
  ,                                       !- Interpolate to Timestep
  24,                                     !- Hour 1
  0,                                      !- Minute 1
  1;                                      !- Value Until Time 1

OS:Schedule:Rule,
  {271e5b90-de30-4b7a-b9d4-2c06e6d9616a}, !- Handle
  Schedule Rule 3,                        !- Name
  {01033615-147f-4965-a455-6e1f79dcf6ac}, !- Schedule Ruleset Name
  0,                                      !- Rule Order
  {13d8b55d-2014-4faf-a8e7-1a8c21cdc1f2}, !- Day Schedule Name
  ,                                       !- Apply Sunday
  Yes,                                    !- Apply Monday
  Yes,                                    !- Apply Tuesday
  Yes,                                    !- Apply Wednesday
  Yes,                                    !- Apply Thursday
  Yes,                                    !- Apply Friday
  ,                                       !- Apply Saturday
  ,                                       !- Apply Holiday
  DateRange,                              !- Date Specification Type
  1,                                      !- Start Month
  1,                                      !- Start Day
  12,                                     !- End Month
  31;                                     !- End Day

OS:Schedule:Day,
  {13d8b55d-2014-4faf-a8e7-1a8c21cdc1f2}, !- Handle
  Hospital BLDG_OCC_SCH Wkdy Day,         !- Name
  {4292a731-ac25-4a4e-8fde-d474805c8a6b}, !- Schedule Type Limits Name
  ,                                       !- Interpolate to Timestep
  7,                                      !- Hour 1
  0,                                      !- Minute 1
  0,                                      !- Value Until Time 1
  8,                                      !- Hour 2
  0,                                      !- Minute 2
  0.1,                                    !- Value Until Time 2
  9,                                      !- Hour 3
  0,                                      !- Minute 3
  0.5,                                    !- Value Until Time 3
  17,                                     !- Hour 4
  0,                                      !- Minute 4
  0.8,                                    !- Value Until Time 4
  18,                                     !- Hour 5
  0,                                      !- Minute 5
  0.5,                                    !- Value Until Time 5
  20,                                     !- Hour 6
  0,                                      !- Minute 6
  0.3,                                    !- Value Until Time 6
  22,                                     !- Hour 7
  0,                                      !- Minute 7
  0.2,                                    !- Value Until Time 7
  24,                                     !- Hour 8
  0,                                      !- Minute 8
  0;                                      !- Value Until Time 8

OS:Schedule:Day,
  {4fa044e3-55e1-4978-8ad3-b20ba4f173e2}, !- Handle
  Hospital BLDG_OCC_SCH Winter Design Day, !- Name
  {4292a731-ac25-4a4e-8fde-d474805c8a6b}, !- Schedule Type Limits Name
  ,                                       !- Interpolate to Timestep
  24,                                     !- Hour 1
  0,                                      !- Minute 1
  0;                                      !- Value Until Time 1

OS:Schedule:Ruleset,
  {5a9c2d38-db60-424c-afac-e39d9af842a8}, !- Handle
  Hospital ACTIVITY_SCH,                  !- Name
  {b4719e2c-536d-41c9-a310-69da48f89c63}, !- Schedule Type Limits Name
  {a597d117-8504-4e3a-90bd-eafc3fc8f3ac}, !- Default Day Schedule Name
  {9b215aed-8110-4405-ab72-de2112dfedf0}, !- Summer Design Day Schedule Name
  {95e1bf9a-9384-4b74-b0a9-5edc360c17f3}; !- Winter Design Day Schedule Name

OS:Schedule:Day,
  {a597d117-8504-4e3a-90bd-eafc3fc8f3ac}, !- Handle
  Hospital ACTIVITY_SCH Default,          !- Name
  {b4719e2c-536d-41c9-a310-69da48f89c63}, !- Schedule Type Limits Name
  ,                                       !- Interpolate to Timestep
  24,                                     !- Hour 1
  0,                                      !- Minute 1
  120;                                    !- Value Until Time 1

OS:Schedule:Day,
  {95e1bf9a-9384-4b74-b0a9-5edc360c17f3}, !- Handle
  Hospital ACTIVITY_SCH Winter Design Day, !- Name
  {b4719e2c-536d-41c9-a310-69da48f89c63}, !- Schedule Type Limits Name
  ,                                       !- Interpolate to Timestep
  24,                                     !- Hour 1
  0,                                      !- Minute 1
  120;                                    !- Value Until Time 1

OS:Schedule:Day,
  {9b215aed-8110-4405-ab72-de2112dfedf0}, !- Handle
  Hospital ACTIVITY_SCH Summer Design Day, !- Name
  {b4719e2c-536d-41c9-a310-69da48f89c63}, !- Schedule Type Limits Name
  ,                                       !- Interpolate to Timestep
  24,                                     !- Hour 1
  0,                                      !- Minute 1
  120;                                    !- Value Until Time 1

OS:ScheduleTypeLimits,
  {b4719e2c-536d-41c9-a310-69da48f89c63}, !- Handle
  ActivityLevel,                          !- Name
  0,                                      !- Lower Limit Value
  ,                                       !- Upper Limit Value
  Continuous,                             !- Numeric Type
  ActivityLevel;                          !- Unit Type

OS:Schedule:Ruleset,
  {9e7eaa9d-a792-48eb-9e95-b97b8a904dbd}, !- Handle
  Hospital BLDG_LIGHT_CORRIDOR_SCH,       !- Name
  {4292a731-ac25-4a4e-8fde-d474805c8a6b}, !- Schedule Type Limits Name
  {b8c5022c-a2d7-44b0-aaf7-e19f67bc1b85}, !- Default Day Schedule Name
  {80a20cf7-ad1e-4deb-8021-f91eeec3868c}, !- Summer Design Day Schedule Name
  {41f1052c-4848-4a5b-a09a-c89210e9ed7e}; !- Winter Design Day Schedule Name

OS:Schedule:Day,
  {b8c5022c-a2d7-44b0-aaf7-e19f67bc1b85}, !- Handle
  Hospital BLDG_LIGHT_CORRIDOR_SCH Default, !- Name
  {4292a731-ac25-4a4e-8fde-d474805c8a6b}, !- Schedule Type Limits Name
  ,                                       !- Interpolate to Timestep
  8,                                      !- Hour 1
  0,                                      !- Minute 1
  0.5,                                    !- Value Until Time 1
  16,                                     !- Hour 2
  0,                                      !- Minute 2
  0.7,                                    !- Value Until Time 2
  24,                                     !- Hour 3
  0,                                      !- Minute 3
  0.5;                                    !- Value Until Time 3

OS:Schedule:Rule,
  {0ed61dfe-72a9-45f3-95ec-d9d1a8a7d332}, !- Handle
  Schedule Rule 4,                        !- Name
  {9e7eaa9d-a792-48eb-9e95-b97b8a904dbd}, !- Schedule Ruleset Name
  1,                                      !- Rule Order
  {ec4448d0-2399-4c0a-8853-10fa734b4b0b}, !- Day Schedule Name
  ,                                       !- Apply Sunday
  ,                                       !- Apply Monday
  ,                                       !- Apply Tuesday
  ,                                       !- Apply Wednesday
  ,                                       !- Apply Thursday
  ,                                       !- Apply Friday
  Yes,                                    !- Apply Saturday
  ,                                       !- Apply Holiday
  DateRange,                              !- Date Specification Type
  1,                                      !- Start Month
  1,                                      !- Start Day
  12,                                     !- End Month
  31;                                     !- End Day

OS:Schedule:Day,
  {ec4448d0-2399-4c0a-8853-10fa734b4b0b}, !- Handle
  Hospital BLDG_LIGHT_CORRIDOR_SCH Sat Day, !- Name
  {4292a731-ac25-4a4e-8fde-d474805c8a6b}, !- Schedule Type Limits Name
  ,                                       !- Interpolate to Timestep
  8,                                      !- Hour 1
  0,                                      !- Minute 1
  0.5,                                    !- Value Until Time 1
  18,                                     !- Hour 2
  0,                                      !- Minute 2