
OS:Version,
  {42d816e2-a213-4da0-be2b-3a0641e8a9c6}, !- Handle
  1.0.3;                                  !- Version Identifier

OS:Schedule:Constant,
  {5362ad87-1b35-4912-9c6a-e637bd4c4ffd}, !- Handle
  Always On Discrete,                     !- Name
  {774a102c-20dc-4c33-8bcd-fcfec334c425}, !- Schedule Type Limits Name
  1;                                      !- Value

OS:ScheduleTypeLimits,
  {774a102c-20dc-4c33-8bcd-fcfec334c425}, !- Handle
  Always On Discrete Limits,              !- Name
  0,                                      !- Lower Limit Value {BasedOnField A4}
  1,                                      !- Upper Limit Value {BasedOnField A4}
  Discrete,                               !- Numeric Type
  Availability;                           !- Unit Type

OS:Building,
  {08678ddd-175a-469b-9626-2f02c40b6916}, ! Handle
  Medium Office,                          ! Name
  ,                                       ! Building Type
  -0,                                     ! North Axis
  ,                                       ! Nominal Floor to Floor Height
  {f4de87b0-5d1b-454c-9fc8-3f5a824ee533}, ! Space Type Name
  {8d276ca2-ac82-489c-8e07-395b89456514}, ! Default Construction Set Name
  ;                                       ! Default Schedule Set Name

OS:Construction,
  {a4707411-1a3e-43c1-b1c3-26a5dadf04f2}, ! Handle
  000 ExtSlabCarpet 4in ClimateZone 1-8,  ! Name
  {3ac3ab6e-838a-4987-a923-7ed16f076f1c}, ! Surface Rendering Name
  {8984dd43-df62-4d44-ae87-bc2bd2873b0e}, ! Layer 1
  {cf43fad8-0e82-4f83-ae04-66d40df51c35}; ! Layer 2

OS:Construction,
  {b09a8a1c-d2ef-47c1-87d1-ebed9781986c}, ! Handle
  000 Exterior Door,                      ! Name
  {336262c3-ed6f-4bd5-bd5b-d932449932e2}, ! Surface Rendering Name
  {ab2b6805-18a2-4e07-a2cb-4572d04f6890}, ! Layer 1
  {fe097386-a229-4196-90e2-4a422c321f26}; ! Layer 2

OS:Construction,
  {bf7a6673-5c75-47b0-9fb8-67dd3c74f3df}, ! Handle
  000 Exterior Window,                    ! Name
  {5258d57d-6d17-494e-9c3b-4c56919ea2f6}, ! Surface Rendering Name
  {f1c02e84-56ed-458b-88f2-c04a48b49010}, ! Layer 1
  {e206938a-22d6-40d6-a854-d669000ee30e}, ! Layer 2
  {f1c02e84-56ed-458b-88f2-c04a48b49010}; ! Layer 3

OS:Construction,
  {c9ec5036-78a9-455e-b264-b2a62182a6b1}, ! Handle
  000 Interior Ceiling,                   ! Name
  {d215b2b0-0241-4ad0-b07c-0df46d01f486}, ! Surface Rendering Name
  {f5ff5b8a-abba-4c43-b424-7ce4541deb2e}, ! Layer 1
  {7046c4c7-d903-44e8-85a6-633f6dfd0880}, ! Layer 2
  {364c7d39-64f6-45c6-a3b5-715541cdf78c}; ! Layer 3

OS:Construction,
  {0450d37d-52f1-4423-96c9-b8c2cad4782f}, ! Handle
  000 Interior Door,                      ! Name
  {10b662a5-17eb-4067-8ab6-1c6c92619ced}, ! Surface Rendering Name
  {2d8c20fd-e8a4-44df-b399-58414f1b82da}; ! Layer 1

OS:Construction,
  {93349841-d95e-46e4-93eb-90902241d529}, ! Handle
  000 Interior Floor,                     ! Name
  {994d202e-504a-4148-84f1-46b26fd74ce7}, ! Surface Rendering Name
  {364c7d39-64f6-45c6-a3b5-715541cdf78c}, ! Layer 1
  {7046c4c7-d903-44e8-85a6-633f6dfd0880}, ! Layer 2
  {f5ff5b8a-abba-4c43-b424-7ce4541deb2e}; ! Layer 3

OS:Construction,
  {b823a257-780f-4555-a887-40683e3a9161}, ! Handle
  000 Interior Partition,                 ! Name
  {3345a47f-3148-4884-93eb-8d5a5a0a785d}, ! Surface Rendering Name
  {2d8c20fd-e8a4-44df-b399-58414f1b82da}; ! Layer 1

OS:Construction,
  {3926bc23-cb28-4481-bed7-a8959aa9784e}, ! Handle
  000 Interior Wall,                      ! Name
  {a4e4bf50-8f71-4600-993d-4ea1ca2afada}, ! Surface Rendering Name
  {29d7f267-ab87-4d62-8306-440e6f53637e}, ! Layer 1
  {b5810d0b-c582-4615-81dc-b681455a0b89}, ! Layer 2
  {29d7f267-ab87-4d62-8306-440e6f53637e}; ! Layer 3

OS:Construction,
  {3506a07b-6579-4526-86ca-84b833269727}, ! Handle
  000 Interior Window,                    ! Name
  {6a66ec3d-9ebd-481c-931c-fad8647d508d}, ! Surface Rendering Name
  {f1c02e84-56ed-458b-88f2-c04a48b49010}; ! Layer 1

OS:Construction,
  {a8ec8d46-f820-4692-b7d1-8346031294e7}, ! Handle
  ASHRAE 189.1-2009 ExtRoof IEAD ClimateZone 2-5, ! Name
  {00efa528-c739-4942-bb54-971e350d5081}, ! Surface Rendering Name
  {c5f0408f-a551-46fc-bb2a-66e8fe03a7e4}, ! Layer 1
  {18b72934-41b6-4f32-a5f4-8b7a91e77efd}, ! Layer 2
  {fcb365fd-eecd-4d24-85d7-1f03e46a153f}; ! Layer 3

OS:Construction,
  {d3f0263a-db9d-4775-bdee-fb25f77960c4}, ! Handle
  ASHRAE 189.1-2009 ExtWall SteelFrame ClimateZone 4-8, ! Name
  {6d1599e9-d10c-498e-a73e-8cbb2dcd9066}, ! Surface Rendering Name
  {ef054e0e-b819-4df7-af1e-4bced2204c22}, ! Layer 1
  {23728136-9ebb-48c4-8d6a-634b96902763}, ! Layer 2
  {dd291baf-0dfd-4dc8-9861-b87566b1ebe7}; ! Layer 3

OS:Construction,
  {86ecef4a-09f4-496e-8a5c-bbf1c9bc67d7}, ! Handle
  ASHRAE 189.1-2009 ExtWindow ClimateZone 4-5, ! Name
  {d43e1bbd-8f3c-4474-9188-3505c2d039e8}, ! Surface Rendering Name
  {21af3466-d55f-4752-adcd-d84768abc6a2}; ! Layer 1

OS:Construction,
  {4a86e3b0-a80f-45b5-bafa-021eb73eb53c}, ! Handle
  Air Wall,                               ! Name
  {f16d79c6-23ca-4509-a014-2175d9ec5914}, ! Surface Rendering Name
  {1fe29fd1-e434-43da-9987-3e0281921913}; ! Layer 1

OS:DefaultConstructionSet,
  {8d276ca2-ac82-489c-8e07-395b89456514}, ! Handle
  ASHRAE 189.1-2009 ClimateZone 4-5 (mdoff) ConstSet, ! Name
  {10a56728-d349-4650-a259-a46789e73ea8}, ! Default Exterior Surface Constructions Name
  {67c7afba-e420-4d66-9646-246e304b4b86}, ! Default Interior Surface Constructions Name
  {3c99188a-5f80-46f5-940a-340304459562}, ! Default Ground Contact Surface Constructions Name
  {2ecf4f4c-85ee-4d44-969d-1cf3dc9d0651}, ! Default Exterior SubSurface Constructions Name
  {edc7805e-40b6-44a8-8a30-2abcacbc0e12}, ! Default Interior SubSurface Constructions Name
  {b823a257-780f-4555-a887-40683e3a9161}, ! Interior Partition Construction Name
  ,                                       ! Space Shading Construction Name
  ,                                       ! Building Shading Construction Name
  ;                                       ! Site Shading Construction Name

OS:DefaultScheduleSet,
  {2570f7fd-b7d1-44dd-aa85-c4a6191683d9}, ! Handle
  MediumOffice Schedules,                 ! Name
  ,                                       ! Hours of Operation Schedule Name
  {34919a6f-e6d8-47b8-b201-824c95e09ae4}, ! Number of People Schedule Name
  {104f68c3-b4b9-47ab-991e-8172073916a8}, ! People Activity Level Schedule Name
  {0aa9a306-4ed4-43fa-87dd-b9d7c06edc84}, ! Lighting Schedule Name
  {9fdd0eef-5ec6-41fd-85aa-d69720564a22}, ! Electric Equipment Schedule Name
  ,                                       ! Gas Equipment Schedule Name
  ,                                       ! Hot Water Equipment Schedule Name
  {1815dc4a-c907-4ffb-9942-3ff084ece1be}, ! Infiltration Schedule Name
  ,                                       ! Steam Equipment Schedule Name
  ;                                       ! Other Equipment Schedule Name

OS:DefaultSubSurfaceConstructions,
  {edc7805e-40b6-44a8-8a30-2abcacbc0e12}, ! Handle
  000 Interior DefSubCons,                ! Name
  {3506a07b-6579-4526-86ca-84b833269727}, ! Fixed Window Construction Name
  {3506a07b-6579-4526-86ca-84b833269727}, ! Operable Window Construction Name
  {0450d37d-52f1-4423-96c9-b8c2cad4782f}, ! Door Construction Name
  {bf7a6673-5c75-47b0-9fb8-67dd3c74f3df}, ! Glass Door Construction Name
  ,                                       ! Overhead Door Construction Name
  {bf7a6673-5c75-47b0-9fb8-67dd3c74f3df}, ! Skylight Construction Name
  {3506a07b-6579-4526-86ca-84b833269727}, ! Tubular Daylight Dome Construction Name
  {3506a07b-6579-4526-86ca-84b833269727}; ! Tubular Daylight Diffuser Construction Name

OS:DefaultSubSurfaceConstructions,
  {2ecf4f4c-85ee-4d44-969d-1cf3dc9d0651}, ! Handle
  ASHRAE 189.1-2009 ClimateZone 4-5 (mdoff) Exterior DefSubCons, ! Name
  {86ecef4a-09f4-496e-8a5c-bbf1c9bc67d7}, ! Fixed Window Construction Name
  {86ecef4a-09f4-496e-8a5c-bbf1c9bc67d7}, ! Operable Window Construction Name
  {b09a8a1c-d2ef-47c1-87d1-ebed9781986c}, ! Door Construction Name
  {bf7a6673-5c75-47b0-9fb8-67dd3c74f3df}, ! Glass Door Construction Name
  ,                                       ! Overhead Door Construction Name
  {bf7a6673-5c75-47b0-9fb8-67dd3c74f3df}, ! Skylight Construction Name
  {3506a07b-6579-4526-86ca-84b833269727}, ! Tubular Daylight Dome Construction Name
  {3506a07b-6579-4526-86ca-84b833269727}; ! Tubular Daylight Diffuser Construction Name

OS:DefaultSurfaceConstructions,
  {3c99188a-5f80-46f5-940a-340304459562}, ! Handle
  000 Ground DefSurfCons,                 ! Name
  {a4707411-1a3e-43c1-b1c3-26a5dadf04f2}, ! Floor Construction Name
  {a4707411-1a3e-43c1-b1c3-26a5dadf04f2}, ! Wall Construction Name
  {a4707411-1a3e-43c1-b1c3-26a5dadf04f2}; ! Roof Ceiling Construction Name

OS:DefaultSurfaceConstructions,
  {67c7afba-e420-4d66-9646-246e304b4b86}, ! Handle
  000 Interior DefSurfCons,               ! Name
  {93349841-d95e-46e4-93eb-90902241d529}, ! Floor Construction Name
  {3926bc23-cb28-4481-bed7-a8959aa9784e}, ! Wall Construction Name
  {c9ec5036-78a9-455e-b264-b2a62182a6b1}; ! Roof Ceiling Construction Name

OS:DefaultSurfaceConstructions,
  {10a56728-d349-4650-a259-a46789e73ea8}, ! Handle
  ASHRAE 189.1-2009 ClimateZone 4-5 (mdoff) Exterior DefSurfCons, ! Name
  {a4707411-1a3e-43c1-b1c3-26a5dadf04f2}, ! Floor Construction Name
  {d3f0263a-db9d-4775-bdee-fb25f77960c4}, ! Wall Construction Name
  {a8ec8d46-f820-4692-b7d1-8346031294e7}; ! Roof Ceiling Construction Name

OS:ElectricEquipment,
  {61628242-05a5-463f-af0a-66738644b655}, ! Handle
  ASHRAE 189.1-2009 ClimateZone 4-8 MediumOffice ElecInst, ! Name
  {568f6364-518d-44fd-9d78-e96c415063b0}, ! Electric Equipment Definition Name
  {f4de87b0-5d1b-454c-9fc8-3f5a824ee533}, ! Space or SpaceType Name
  ,                                       ! Schedule Name
  ,                                       ! Multiplier
  ElectricEquipment;                      ! End-Use Subcategory

OS:ElectricEquipment:Definition,
  {568f6364-518d-44fd-9d78-e96c415063b0}, ! Handle
  ASHRAE 189.1-2009 ClimateZone 4-8 MediumOffice ElecDef, ! Name
  Watts/Area,                             ! Design Level Calculation Method
  0,                                      ! Design Level
  5.8125141276385044,                     ! Watts per Space Floor Area
  ,                                       ! Watts per Person
  ,                                       ! Fraction Latent
  ,                                       ! Fraction Radiant
  ;                                       ! Fraction Lost

OS:Facility,
  {cf302468-3453-4b1f-a1ed-b05a0da3cd5c}; ! Handle

OS:Lights,
  {88f482eb-7acb-49fc-abdc-b7cfb79dd432}, ! Handle
  ASHRAE 189.1-2009 ClimateZone 4-8 MediumOffice LightsInst, ! Name
  {3bc849e4-6d78-42e0-a441-3a176abeef9c}, ! Lights Definition Name
  {f4de87b0-5d1b-454c-9fc8-3f5a824ee533}, ! Space or SpaceType Name
  ,                                       ! Schedule Name
  ,                                       ! Fraction Replaceable
  ,                                       ! Multiplier
  Lights;                                 ! End-Use Subcategory

OS:Lights:Definition,
  {3bc849e4-6d78-42e0-a441-3a176abeef9c}, ! Handle
  ASHRAE 189.1-2009 ClimateZone 4-8 MediumOffice LightsDef, ! Name
  Watts/Area,                             ! Design Level Calculation Method
  0,                                      ! Lighting Level
  9.687523546064174,                      ! Watts per Space Floor Area
  ,                                       ! Watts per Person
  ,                                       ! Fraction Radiant
  ,                                       ! Fraction Visible
  ,                                       ! Return Air Fraction
  ,                                       ! Return Air Fraction Calculated from Plenum Temperature
  ,                                       ! Return Air Fraction Function of Plenum Temperature Coefficient 1
  ;                                       ! Return Air Fraction Function of Plenum Temperature Coefficient 2

OS:Material,
  {ab2b6805-18a2-4e07-a2cb-4572d04f6890}, ! Handle
  000 F08 Metal surface,                  ! Name
  Smooth,                                 ! Roughness
  0.00080000000000000004,                 ! Thickness
  45.280000000000001,                     ! Conductivity
  7824,                                   ! Density
  500;                                    ! Specific Heat

OS:Material,
  {364c7d39-64f6-45c6-a3b5-715541cdf78c}, ! Handle
  000 F16 Acoustic tile,                  ! Name
  MediumSmooth,                           ! Roughness
  0.019099999999999999,                   ! Thickness
  0.059999999999999998,                   ! Conductivity
  368,                                    ! Density
  590;                                    ! Specific Heat

OS:Material,
  {29d7f267-ab87-4d62-8306-440e6f53637e}, ! Handle
  000 G01a 19mm gypsum board,             ! Name
  MediumSmooth,                           ! Roughness
  0.019,                                  ! Thickness
  0.16,                                   ! Conductivity
  800,                                    ! Density
  1090;                                   ! Specific Heat

OS:Material,
  {2d8c20fd-e8a4-44df-b399-58414f1b82da}, ! Handle
  000 G05 25mm wood,                      ! Name
  MediumSmooth,                           ! Roughness
  0.025399999999999999,                   ! Thickness
  0.14999999999999999,                    ! Conductivity
  608,                                    ! Density
  1630;                                   ! Specific Heat

OS:Material,
  {fe097386-a229-4196-90e2-4a422c321f26}, ! Handle
  000 I01 25mm insulation board,          ! Name
  MediumRough,                            ! Roughness
  0.025399999999999999,                   ! Thickness
  0.029999999999999999,                   ! Conductivity
  43,                                     ! Density
  1210;                                   ! Specific Heat

OS:Material,
  {f5ff5b8a-abba-4c43-b424-7ce4541deb2e}, ! Handle
  000 M11 100mm lightweight concrete,     ! Name
  MediumRough,                            ! Roughness
  0.1016,                                 ! Thickness
  0.53000000000000003,                    ! Conductivity
  1280,                                   ! Density
  840;                                    ! Specific Heat

OS:Material,
  {dd291baf-0dfd-4dc8-9861-b87566b1ebe7}, ! Handle
  1/2IN Gypsum,                           ! Name
  Smooth,                                 ! Roughness
  0.012699999999999999,                   ! Thickness
  0.16,                                   ! Conductivity
  784.89999999999998,                     ! Density
  830,                                    ! Specific Heat
  0.90000000000000002,                    ! Thermal Absorptance
  0.92000000000000004,                    ! Solar Absorptance
  0.92000000000000004;                    ! Visible Absorptance

OS:Material,
  {8984dd43-df62-4d44-ae87-bc2bd2873b0e}, ! Handle
  MAT-CC05 4 HW CONCRETE,                 ! Name
  Rough,                                  ! Roughness
  0.1016,                                 ! Thickness
  1.3109999999999999,                     ! Conductivity
  2240,                                   ! Density
  836.79999999999995,                     ! Specific Heat
  0.90000000000000002,                    ! Thermal Absorptance
  0.69999999999999996,                    ! Solar Absorptance
  0.69999999999999996;                    ! Visible Absorptance

OS:Material,
  {fcb365fd-eecd-4d24-85d7-1f03e46a153f}, ! Handle
  Metal Decking,                          ! Name
  MediumSmooth,                           ! Roughness
  0.0015,                                 ! Thickness
  45.006,                                 ! Conductivity
  7680,                                   ! Density
  418.39999999999998,                     ! Specific Heat
  0.90000000000000002,                    ! Thermal Absorptance
  0.69999999999999996,                    ! Solar Absorptance
  0.29999999999999999;                    ! Visible Absorptance

OS:Material,
  {18b72934-41b6-4f32-a5f4-8b7a91e77efd}, ! Handle
  Roof Insulation [21],                   ! Name
  MediumRough,                            ! Roughness
  0.21049999999999999,                    ! Thickness
  0.049000000000000002,                   ! Conductivity
  265,                                    ! Density
  836.79999999999995,                     ! Specific Heat
  0.90000000000000002,                    ! Thermal Absorptance
  0.69999999999999996,                    ! Solar Absorptance
  0.69999999999999996;                    ! Visible Absorptance

OS:Material,
  {c5f0408f-a551-46fc-bb2a-66e8fe03a7e4}, ! Handle
  Roof Membrane,                          ! Name
  VeryRough,                              ! Roughness
  0.0094999999999999998,                  ! Thickness
  0.16,                                   ! Conductivity
  1121.29,                                ! Density
  1460,                                   ! Specific Heat
  0.90000000000000002,                    ! Thermal Absorptance
  0.69999999999999996,                    ! Solar Absorptance
  0.69999999999999996;                    ! Visible Absorptance

OS:Material,
  {23728136-9ebb-48c4-8d6a-634b96902763}, ! Handle
  Wall Insulation [39],                   ! Name
  MediumRough,                            ! Roughness
  0.11840000000000001,                    ! Thickness
  0.044999999999999998,                   ! Conductivity
  265,                                    ! Density
  836.79999999999995,                     ! Specific Heat
  0.90000000000000002,                    ! Thermal Absorptance
  0.69999999999999996,                    ! Solar Absorptance
  0.69999999999999996;                    ! Visible Absorptance

OS:Material:AirGap,
  {b5810d0b-c582-4615-81dc-b681455a0b89}, ! Handle
  000 F04 Wall air space resistance,      ! Name
  0.14999999999999999;                    ! Thermal Resistance

OS:Material:AirGap,
  {7046c4c7-d903-44e8-85a6-633f6dfd0880}, ! Handle
  000 F05 Ceiling air space resistance,   ! Name
  0.17999999999999999;                    ! Thermal Resistance

OS:Material:AirWall,
  {1fe29fd1-e434-43da-9987-3e0281921913}, ! Handle
  OS:Material:AirWall 1;                  ! Name

OS:Material:NoMass,
  {cf43fad8-0e82-4f83-ae04-66d40df51c35}, ! Handle
  CP02 CARPET PAD,                        ! Name
  VeryRough,                              ! Roughness
  0.2165,                                 ! Thermal Resistance
  0.90000000000000002,                    ! Thermal Absorptance
  0.69999999999999996,                    ! Solar Absorptance
  0.80000000000000004;                    ! Visible Absorptance

OS:Material:NoMass,
  {ef054e0e-b819-4df7-af1e-4bced2204c22}, ! Handle
  MAT-SHEATH,                             ! Name
  Rough,                                  ! Roughness
  0.36259999999999998,                    ! Thermal Resistance
  0.90000000000000002,                    ! Thermal Absorptance
  0.69999999999999996,                    ! Solar Absorptance
  0.69999999999999996;                    ! Visible Absorptance

OS:Output:Variable,
  {28cd8b45-ce04-45ff-a4d0-dfef140bee6e}, ! Handle
  hourly* - Zone Air System Sensible Heating Rate, ! Name
  *,                                      ! Key Value
  Zone Air System Sensible Heating Rate,  ! Variable Name
  hourly;                                 ! Reporting Frequency

OS:Output:Variable,
  {8fb61650-0f2c-4eb5-8188-e14df62eab27}, ! Handle
  hourly* - Zone Air System Sensible Cooling Rate, ! Name
  *,                                      ! Key Value
  Zone Air System Sensible Cooling Rate,  ! Variable Name
  hourly;                                 ! Reporting Frequency

OS:People,
  {3716b196-c15b-4911-be03-65f9d5210dc6}, ! Handle
  ASHRAE 189.1-2009 ClimateZone 4-8 MediumOffice PeopInst, ! Name
  {84d764e2-8b36-4a28-b0b9-0d4df078ed71}, ! People Definition Name
  {f4de87b0-5d1b-454c-9fc8-3f5a824ee533}; ! Space or SpaceType Name

OS:People:Definition,
  {84d764e2-8b36-4a28-b0b9-0d4df078ed71}, ! Handle
  MediumOffice PeopDef,                   ! Name
  People/Area,                            ! Number of People Calculation Method
  0,                                      ! Number of People
  0.053819575255912078,                   ! People per Space Floor Area
  ,                                       ! Space Floor Area per Person
  0.3;                                    ! Fraction Radiant

OS:Rendering:Color,
  {3ac3ab6e-838a-4987-a923-7ed16f076f1c}, ! Handle
  000 ExtSlabCarpet 4in ClimateZone 1-8 Color, ! Name
  198.9,                                  ! Rendering Red Value
  0.0,                                    ! Rendering Green Value
  0.0;                                    ! Rendering Blue Value

OS:Rendering:Color,
  {336262c3-ed6f-4bd5-bd5b-d932449932e2}, ! Handle
  000 Exterior Door Color,                ! Name
  124.3125,                               ! Rendering Red Value
  74.5875,                                ! Rendering Green Value
  89.505;                                 ! Rendering Blue Value

OS:Rendering:Color,
  {5258d57d-6d17-494e-9c3b-4c56919ea2f6}, ! Handle
  000 Exterior Window Color,              ! Name
  198.9,                                  ! Rendering Red Value
  0.0,                                    ! Rendering Green Value
  59.6699999999999,                       ! Rendering Blue Value
  ;                                       ! Rendering Alpha Value

OS:Rendering:Color,
  {d215b2b0-0241-4ad0-b07c-0df46d01f486}, ! Handle
  000 Interior Ceiling Color,             ! Name
  219.096,                                ! Rendering Red Value
  142.8,                                  ! Rendering Green Value
  255.0;                                  ! Rendering Blue Value

OS:Rendering:Color,
  {10b662a5-17eb-4067-8ab6-1c6c92619ced}, ! Handle
  000 Interior Door Color,                ! Name
  168.606,                                ! Rendering Red Value
  255.0,                                  ! Rendering Green Value
  142.8;                                  ! Rendering Blue Value

OS:Rendering:Color,
  {994d202e-504a-4148-84f1-46b26fd74ce7}, ! Handle
  000 Interior Floor Color,               ! Name
  255.0,                                  ! Rendering Red Value
  142.8,                                  ! Rendering Green Value
  142.8;                                  ! Rendering Blue Value

OS:Rendering:Color,
  {3345a47f-3148-4884-93eb-8d5a5a0a785d}, ! Handle
  000 Interior Partition Color,           ! Name
  165.24,                                 ! Rendering Red Value
  142.8,                                  ! Rendering Green Value
  255.0;                                  ! Rendering Blue Value

OS:Rendering:Color,
  {a4e4bf50-8f71-4600-993d-4ea1ca2afada}, ! Handle
  000 Interior Wall Color,                ! Name
  142.8,                                  ! Rendering Red Value
  201.144,                                ! Rendering Green Value
  255.0;                                  ! Rendering Blue Value

OS:Rendering:Color,
  {6a66ec3d-9ebd-481c-931c-fad8647d508d}, ! Handle
  000 Interior Window Color,              ! Name
  235.926,                                ! Rendering Red Value
  255.0,                                  ! Rendering Green Value
  142.8;                                  ! Rendering Blue Value

OS:Rendering:Color,
  {ffe7c1fb-032c-4ec1-a24d-8d1e06bad54e}, ! Handle
  ASHRAE 189.1-2009 ClimateZone 4-8 MediumOffice Color, ! Name
  120.36,                                 ! Rendering Red Value
  236.64,                                 ! Rendering Green Value
  201.756;                                ! Rendering Blue Value

OS:Rendering:Color,
  {00efa528-c739-4942-bb54-971e350d5081}, ! Handle
  ASHRAE 189.1-2009 ExtRoof IEAD ClimateZone 2-5 Color, ! Name
  150.1695,                               ! Rendering Red Value
  14.9175,                                ! Rendering Green Value
  183.9825,                               ! Rendering Blue Value
  ;                                       ! Rendering Alpha Value

OS:Rendering:Color,
  {6d1599e9-d10c-498e-a73e-8cbb2dcd9066}, ! Handle
  ASHRAE 189.1-2009 ExtWall SteelFrame ClimateZone 4-8 Color, ! Name
  21.1139999999998,                       ! Rendering Red Value
  17.2125,                                ! Rendering Green Value
  212.2875;                               ! Rendering Blue Value

OS:Rendering:Color,
  {d43e1bbd-8f3c-4474-9188-3505c2d039e8}, ! Handle
  ASHRAE 189.1-2009 ExtWindow ClimateZone 4-5 Color, ! Name
  109.6653,                               ! Rendering Red Value
  238.935,                                ! Rendering Green Value
  56.865,                                 ! Rendering Blue Value
  ;                                       ! Rendering Alpha Value

OS:Rendering:Color,
  {f16d79c6-23ca-4509-a014-2175d9ec5914}, ! Handle
  Air Wall Color,                         ! Name
  255,                                    ! Rendering Red Value
  69,                                     ! Rendering Green Value
  0,                                      ! Rendering Blue Value
  ;                                       ! Rendering Alpha Value

OS:Rendering:Color,
  {dca0f93c-b0ab-49ea-a058-869b6aa0620c}, ! Handle
  Empty Space Type Color,                 ! Name
  128.0,                                  ! Rendering Red Value
  128.0,                                  ! Rendering Green Value
  128.0;                                  ! Rendering Blue Value

OS:RunPeriodControl:DaylightSavingTime,
  {693caa13-3e74-48ae-8045-a3a848c2807a}, ! Handle
  2nd Sunday in March,                    ! Start Date
  1st Sunday in November;                 ! End Date

OS:RunPeriodControl:SpecialDays,
  {01427c50-9f95-4617-88ea-a0e9186837e8}, ! Handle
  Christmas,                              ! Name
  December 25,                            ! Start Date
  1,                                      ! Duration
  Holiday;                                ! Special Day Type

OS:RunPeriodControl:SpecialDays,
  {4f7bd1ef-5d66-416c-b7cd-645da80eb8db}, ! Handle
  Columbus Day,                           ! Name
  2nd Monday in October,                  ! Start Date
  1,                                      ! Duration
  Holiday;                                ! Special Day Type

OS:RunPeriodControl:SpecialDays,
  {c89b3655-49ce-4e5d-97c9-b2095fd6db9c}, ! Handle
  Independence Day,                       ! Name
  July 4,                                 ! Start Date
  1,                                      ! Duration
  Holiday;                                ! Special Day Type

OS:RunPeriodControl:SpecialDays,
  {bc7c5297-77e3-4f10-bc89-f8f14a796e35}, ! Handle
  Labor Day,                              ! Name
  1st Monday in September,                ! Start Date
  1,                                      ! Duration
  Holiday;                                ! Special Day Type

OS:RunPeriodControl:SpecialDays,
  {d5293439-b4e0-42c4-ae8f-39daf0fa9e60}, ! Handle
  MLK Day,                                ! Name
  3rd Monday in January,                  ! Start Date
  1,                                      ! Duration
  Holiday;                                ! Special Day Type

OS:RunPeriodControl:SpecialDays,
  {5053f38e-2fe7-4c10-afbd-cc1965219b26}, ! Handle
  Memorial Day,                           ! Name
  Last Monday in May,                     ! Start Date
  1,                                      ! Duration
  Holiday;                                ! Special Day Type

OS:RunPeriodControl:SpecialDays,
  {246c2b99-5ff6-48d4-a556-71bb50fed76b}, ! Handle
  New Years Day,                          ! Name
  January 1,                              ! Start Date
  1,                                      ! Duration
  Holiday;                                ! Special Day Type

OS:RunPeriodControl:SpecialDays,
  {086bd7a3-d72e-44c0-acc9-70d041c4c2f5}, ! Handle
  Presidents Day,                         ! Name
  3rd Monday in February,                 ! Start Date
  1,                                      ! Duration
  Holiday;                                ! Special Day Type

OS:RunPeriodControl:SpecialDays,
  {675b176b-6342-4e06-9b76-f297a6b58c55}, ! Handle
  Thanksgiving,                           ! Name
  4th Thursday in November,               ! Start Date
  1,                                      ! Duration
  Holiday;                                ! Special Day Type

OS:RunPeriodControl:SpecialDays,
  {4d4d7ba3-4fd8-4f69-9194-9b7ffe61cc8d}, ! Handle
  Veterans Day,                           ! Name
  November 11,                            ! Start Date
  1,                                      ! Duration
  Holiday;                                ! Special Day Type

OS:ScheduleTypeLimits,
  {a36b9707-67e9-4ac7-87d8-bca1cdc8d977}, ! Handle
  Any Number;                             ! Name

OS:ScheduleTypeLimits,
  {d5de7a23-6ee1-4151-a263-1bfb8dd0a2ce}, ! Handle
  Control Type,                           ! Name
  0,                                      ! Lower Limit Value
  4,                                      ! Upper Limit Value
  DISCRETE;                               ! Numeric Type

OS:ScheduleTypeLimits,
  {34a5bba4-16c2-43a7-83db-1840d06ef230}, ! Handle
  Fraction,                               ! Name
  0,                                      ! Lower Limit Value
  1,                                      ! Upper Limit Value
  CONTINUOUS;                             ! Numeric Type

OS:ScheduleTypeLimits,
  {860056cb-f9ed-447b-aaaf-630c68f1cc0e}, ! Handle
  On/Off,                                 ! Name
  0,                                      ! Lower Limit Value
  1,                                      ! Upper Limit Value
  DISCRETE;                               ! Numeric Type

OS:SimulationControl,
  {657ba578-29ab-439c-87b6-218865343bf2}, ! Handle
  No,                                     ! Do Zone Sizing Calculation