
OS:Version,
  {b73430b9-f9b5-4e83-a7f0-fc021d2aab3b}, !- Handle
  1.11.0;                                 !- Version Identifier

OS:SimulationControl,
  {2aaa19f6-2e40-47e8-95c7-55288a0ca715}, !- Handle
  Yes,                                    !- Do Zone Sizing Calculation
  Yes,                                    !- Do System Sizing Calculation
  ,                                       !- Do Plant Sizing Calculation
  No,                                     !- Run Simulation for Sizing Periods
  Yes;                                    !- Run Simulation for Weather File Run Periods

OS:Timestep,
  {96578607-dbe9-4490-ba0c-74bd71d483f7}, !- Handle
  6;                                      !- Number of Timesteps per Hour

OS:RunPeriod,
  {6a204c43-e177-4f07-8226-239e376aca45}, !- Handle
  Run Period 1,                           !- Name
  1,                                      !- Begin Month
  1,                                      !- Begin Day of Month
  12,                                     !- End Month
  31,                                     !- End Day of Month
  No,                                     !- Use Weather File Holidays and Special Days
  No,                                     !- Use Weather File Daylight Saving Period
  No,                                     !- Apply Weekend Holiday Rule
  Yes,                                    !- Use Weather File Rain Indicators
  Yes,                                    !- Use Weather File Snow Indicators
  1;                                      !- Number of Times Runperiod to be Repeated

OS:SurfaceConvectionAlgorithm:Inside,
  {0b24d23b-fbc2-4101-8564-1ce7a7caec8d}, !- Handle
  TARP;                                   !- Algorithm

OS:SurfaceConvectionAlgorithm:Outside,
  {290e4f33-44ba-484b-bf4b-c71040bd4369}, !- Handle
  DOE-2;                                  !- Algorithm

OS:HeatBalanceAlgorithm,
  {d2789c44-8125-4b03-9d10-a6bd64b41227}, !- Handle
  ConductionTransferFunction,             !- Algorithm
  200;                                    !- Surface Temperature Upper Limit {C}

OS:ZoneAirHeatBalanceAlgorithm,
  {9ea6d65c-b1c7-45cc-af38-a9fc225f5a5d}, !- Handle
  ThirdOrderBackwardDifference;           !- Algorithm

OS:ConvergenceLimits,
  {7a4e9217-5f30-4e99-b26a-3a6e3c60b0ca}, !- Handle
  1;                                      !- Minimum System Timestep {minutes}

OS:ShadowCalculation,
  {28376b5d-72cc-4562-8d43-a27823be9d1a}, !- Handle
  20,                                     !- Calculation Frequency
  15000;                                  !- Maximum Figures in Shadow Overlap Calculations

OS:Site,
  {cc29db58-7580-44d7-b2c9-e782be4e5a28}, !- Handle
  Denver Centennial  Golden   Nr,         !- Name
  39.74,                                  !- Latitude {deg}
  -105.18,                                !- Longitude {deg}
  -7,                                     !- Time Zone {hr}
  1829,                                   !- Elevation {m}
  ;                                       !- Terrain

OS:Site:GroundTemperature:BuildingSurface,
  {754fe24b-87c3-4f35-91d2-31c7d4e189aa}, !- Handle
  19.527,                                 !- January Ground Temperature {C}
  19.502,                                 !- February Ground Temperature {C}
  19.536,                                 !- March Ground Temperature {C}
  19.598,                                 !- April Ground Temperature {C}
  20.002,                                 !- May Ground Temperature {C}
  21.64,                                  !- June Ground Temperature {C}
  22.225,                                 !- July Ground Temperature {C}
  22.375,                                 !- August Ground Temperature {C}
  21.449,                                 !- September Ground Temperature {C}
  20.121,                                 !- October Ground Temperature {C}
  19.802,                                 !- November Ground Temperature {C}
  19.633;                                 !- December Ground Temperature {C}

OS:Site:WaterMainsTemperature,
  {f35ed4fa-6339-43c9-8e06-28177d9ea732}, !- Handle
  Correlation,                            !- Calculation Method
  ,                                       !- Temperature Schedule Name
  9.69,                                   !- Annual Average Outdoor Air Temperature {C}
  28.1;                                   !- Maximum Difference In Monthly Average Outdoor Air Temperatures {deltaC}

OS:SizingPeriod:DesignDay,
  {06a5aed7-9474-499e-9363-68154e12a8df}, !- Handle
  Sizing Period Design Day 1,             !- Name
  -20.6,                                  !- Maximum Dry-Bulb Temperature {C}
  0,                                      !- Daily Dry-Bulb Temperature Range {deltaC}
  -20.6,                                  !- Humidity Indicating Conditions at Maximum Dry-Bulb
  99063,                                  !- Barometric Pressure {Pa}
  4.9,                                    !- Wind Speed {m/s}
  270,                                    !- Wind Direction {deg}
  0,                                      !- Sky Clearness
  0,                                      !- Rain Indicator
  0,                                      !- Snow Indicator
  21,                                     !- Day of Month
  1,                                      !- Month
  WinterDesignDay,                        !- Day Type
  0,                                      !- Daylight Saving Time Indicator
  WetBulb,                                !- Humidity Indicating Type
  ,                                       !- Humidity Indicating Day Schedule Name
  DefaultMultipliers,                     !- Dry-Bulb Temperature Range Modifier Type
  ,                                       !- Dry-Bulb Temperature Range Modifier Schedule Name
  AshraeClearSky;                         !- Solar Model Indicator

OS:SizingPeriod:DesignDay,
  {9391b694-b07d-4698-a674-de3636a4c5b7}, !- Handle
  Sizing Period Design Day 2,             !- Name
  33.2,                                   !- Maximum Dry-Bulb Temperature {C}
  10.7,                                   !- Daily Dry-Bulb Temperature Range {deltaC}
  23.8,                                   !- Humidity Indicating Conditions at Maximum Dry-Bulb
  99063,                                  !- Barometric Pressure {Pa}
  5.3,                                    !- Wind Speed {m/s}
  230,                                    !- Wind Direction {deg}
  1,                                      !- Sky Clearness
  0,                                      !- Rain Indicator
  0,                                      !- Snow Indicator
  21,                                     !- Day of Month
  7,                                      !- Month
  SummerDesignDay,                        !- Day Type
  0,                                      !- Daylight Saving Time Indicator
  WetBulb,                                !- Humidity Indicating Type
  ,                                       !- Humidity Indicating Day Schedule Name
  DefaultMultipliers,                     !- Dry-Bulb Temperature Range Modifier Type
  ,                                       !- Dry-Bulb Temperature Range Modifier Schedule Name
  AshraeClearSky;                         !- Solar Model Indicator

OS:ScheduleTypeLimits,
  {fa1e56e3-2d44-472a-8779-e184bc80a6fe}, !- Handle
  Temperature,                            !- Name
  -60,                                    !- Lower Limit Value
  200,                                    !- Upper Limit Value
  CONTINUOUS,                             !- Numeric Type
  Temperature;                            !- Unit Type

OS:DefaultScheduleSet,
  {1bc3a527-cbd6-4434-a395-4bf4df96c36d}, !- Handle
  Default Schedules,                      !- Name
  ,                                       !- Hours of Operation Schedule Name
  {137bb14a-f589-4e85-986d-9fc71ea79e91}, !- Number of People Schedule Name
  {4e299976-a356-4586-b39f-cb5a964fd044}, !- People Activity Level Schedule Name
  {a6a0763f-9980-4713-9486-1dadf2da23d3}, !- Lighting Schedule Name
  {2cd0d70a-fbff-43aa-8554-ce842e3f694b}, !- Electric Equipment Schedule Name
  {9c342d02-6c23-45a1-8551-72233620b65b}, !- Gas Equipment Schedule Name
  {5356bec8-b237-41cd-bdbb-effd9c7be66f}, !- Hot Water Equipment Schedule Name
  {4265be7d-17ad-43c0-ba4c-e7e17d425c60}, !- Infiltration Schedule Name
  ,                                       !- Steam Equipment Schedule Name
  ;                                       !- Other Equipment Schedule Name

OS:Schedule:Ruleset,
  {137bb14a-f589-4e85-986d-9fc71ea79e91}, !- Handle
  Medium Office Number of People Schedule, !- Name
  {aa3103ae-bf64-48e2-9ee8-fa65362a2879}, !- Schedule Type Limits Name
  {d2c44c4b-ba5a-488b-a4c4-ac61dd3d1327}, !- Default Day Schedule Name
  {f66c6d1a-4c9d-462f-b0cb-8c99af17116c}; !- Summer Design Day Schedule Name

OS:Schedule:Day,
  {d2c44c4b-ba5a-488b-a4c4-ac61dd3d1327}, !- Handle
  Medium Office Number of People All Other Days Schedule, !- Name
  {aa3103ae-bf64-48e2-9ee8-fa65362a2879}, !- Schedule Type Limits Name
  ,                                       !- Interpolate to Timestep
  24,                                     !- Hour 1
  0,                                      !- Minute 1
  0;                                      !- Value Until Time 1

OS:Schedule:Day,
  {4841a107-bc1b-43a5-a8f8-7ed2da1011eb}, !- Handle
  Medium Office Number of People Summer Design Day Schedule, !- Name
  ,                                       !- Schedule Type Limits Name
  ,                                       !- Interpolate to Timestep
  6,                                      !- Hour 1
  0,                                      !- Minute 1
  0,                                      !- Value Until Time 1
  22,                                     !- Hour 2
  0,                                      !- Minute 2
  1,                                      !- Value Until Time 2
  24,                                     !- Hour 3
  0,                                      !- Minute 3
  0.05;                                   !- Value Until Time 3

OS:Schedule:Day,
  {f66c6d1a-4c9d-462f-b0cb-8c99af17116c}, !- Handle
  Medium Office Number of People Summer Design Day Schedule 1, !- Name
  {aa3103ae-bf64-48e2-9ee8-fa65362a2879}, !- Schedule Type Limits Name
  ,                                       !- Interpolate to Timestep
  6,                                      !- Hour 1
  0,                                      !- Minute 1
  0,                                      !- Value Until Time 1
  22,                                     !- Hour 2
  0,                                      !- Minute 2
  1,                                      !- Value Until Time 2
  24,                                     !- Hour 3
  0,                                      !- Minute 3
  0.05;                                   !- Value Until Time 3

OS:Schedule:Rule,
  {dba2e17b-af4d-4192-8e76-9c8719ba38ca}, !- Handle
  Medium Office Number of People Schedule Weekdays Rule, !- Name
  {137bb14a-f589-4e85-986d-9fc71ea79e91}, !- Schedule Ruleset Name
  1,                                      !- Rule Order
  {77ddfde2-4056-46a9-ba88-c9ae788da5b3}, !- Day Schedule Name
  ,                                       !- Apply Sunday
  Yes,                                    !- Apply Monday
  Yes,                                    !- Apply Tuesday
  Yes,                                    !- Apply Wednesday
  Yes,                                    !- Apply Thursday
  Yes;                                    !- Apply Friday

OS:Schedule:Day,
  {77ddfde2-4056-46a9-ba88-c9ae788da5b3}, !- Handle
  Medium Office Number of People Weekdays Schedule, !- Name
  {aa3103ae-bf64-48e2-9ee8-fa65362a2879}, !- Schedule Type Limits Name
  ,                                       !- Interpolate to Timestep
  6,                                      !- Hour 1
  0,                                      !- Minute 1
  0,                                      !- Value Until Time 1
  7,                                      !- Hour 2
  0,                                      !- Minute 2
  0.1,                                    !- Value Until Time 2
  8,                                      !- Hour 3
  0,                                      !- Minute 3
  0.2,                                    !- Value Until Time 3
  12,                                     !- Hour 4
  0,                                      !- Minute 4
  0.95,                                   !- Value Until Time 4
  13,                                     !- Hour 5
  0,                                      !- Minute 5
  0.5,                                    !- Value Until Time 5
  17,                                     !- Hour 6
  0,                                      !- Minute 6
  0.95,                                   !- Value Until Time 6
  18,                                     !- Hour 7
  0,                                      !- Minute 7
  0.7,                                    !- Value Until Time 7
  20,                                     !- Hour 8
  0,                                      !- Minute 8
  0.4,                                    !- Value Until Time 8
  22,                                     !- Hour 9
  0,                                      !- Minute 9
  0.1,                                    !- Value Until Time 9
  24,                                     !- Hour 10
  0,                                      !- Minute 10
  0.05;                                   !- Value Until Time 10

OS:Schedule:Rule,
  {020a6467-6a99-498f-a446-9cbaf53b3a94}, !- Handle
  Medium Office Number of People Schedule Saturday Rule, !- Name
  {137bb14a-f589-4e85-986d-9fc71ea79e91}, !- Schedule Ruleset Name
  0,                                      !- Rule Order
  {5d8568bc-87e1-4fcc-82e9-11ebde15be7d}, !- Day Schedule Name
  ,                                       !- Apply Sunday
  ,                                       !- Apply Monday
  ,                                       !- Apply Tuesday
  ,                                       !- Apply Wednesday
  ,                                       !- Apply Thursday
  ,                                       !- Apply Friday
  Yes;                                    !- Apply Saturday

OS:Schedule:Day,
  {5d8568bc-87e1-4fcc-82e9-11ebde15be7d}, !- Handle
  Medium Office Number of People Saturday Schedule, !- Name
  {aa3103ae-bf64-48e2-9ee8-fa65362a2879}, !- Schedule Type Limits Name
  ,                                       !- Interpolate to Timestep
  6,                                      !- Hour 1
  0,                                      !- Minute 1
  0,                                      !- Value Until Time 1
  8,                                      !- Hour 2
  0,                                      !- Minute 2
  0.1,                                    !- Value Until Time 2
  14,                                     !- Hour 3
  0,                                      !- Minute 3
  0.5,                                    !- Value Until Time 3
  17,                                     !- Hour 4
  0,                                      !- Minute 4
  0.1,                                    !- Value Until Time 4
  24,                                     !- Hour 5
  0,                                      !- Minute 5
  0;                                      !- Value Until Time 5

OS:ScheduleTypeLimits,
  {aa3103ae-bf64-48e2-9ee8-fa65362a2879}, !- Handle
  Fractional,                             !- Name
  0,                                      !- Lower Limit Value
  1,                                      !- Upper Limit Value
  Continuous;                             !- Numeric Type

OS:Schedule:Ruleset,
  {4e299976-a356-4586-b39f-cb5a964fd044}, !- Handle
  Medium Office People Activity Level Schedule, !- Name
  {5f2a0c14-d9f0-4a03-b818-3b62d3435d0c}, !- Schedule Type Limits Name
  {869d5bce-cb71-44f2-9108-27415be6f3d1}; !- Default Day Schedule Name

OS:Schedule:Day,
  {869d5bce-cb71-44f2-9108-27415be6f3d1}, !- Handle
  Medium Office People Activity Level All Days Schedule, !- Name
  {5f2a0c14-d9f0-4a03-b818-3b62d3435d0c}, !- Schedule Type Limits Name
  ,                                       !- Interpolate to Timestep
  24,                                     !- Hour 1
  0,                                      !- Minute 1
  120;                                    !- Value Until Time 1

OS:ScheduleTypeLimits,
  {5f2a0c14-d9f0-4a03-b818-3b62d3435d0c}, !- Handle
  ActivityLevel,                          !- Name
  0,                                      !- Lower Limit Value
  ,                                       !- Upper Limit Value
  Continuous,                             !- Numeric Type
  ActivityLevel;                          !- Unit Type

OS:Schedule:Ruleset,
  {a6a0763f-9980-4713-9486-1dadf2da23d3}, !- Handle
  Medium Office Lighting Schedule,        !- Name
  {aa3103ae-bf64-48e2-9ee8-fa65362a2879}, !- Schedule Type Limits Name
  {a4d468a7-c6e3-4ff5-b184-d5590f1b8b7e}, !- Default Day Schedule Name
  {15643494-f049-4639-805b-fc7933d58258}, !- Summer Design Day Schedule Name
  {30a1ce90-258f-4918-9ee8-84f17b7f4af3}; !- Winter Design Day Schedule Name

OS:Schedule:Day,
  {a4d468a7-c6e3-4ff5-b184-d5590f1b8b7e}, !- Handle
  Medium Office Lighting All Other Days Schedule, !- Name
  {aa3103ae-bf64-48e2-9ee8-fa65362a2879}, !- Schedule Type Limits Name
  ,                                       !- Interpolate to Timestep
  24,                                     !- Hour 1
  0,                                      !- Minute 1
  0.05;                                   !- Value Until Time 1

OS:Schedule:Day,
  {4acde158-a7f6-4fb7-968e-0363084ebfca}, !- Handle
  Medium Office Lighting Summer Design Day Schedule, !- Name
  ,                                       !- Schedule Type Limits Name
  ,                                       !- Interpolate to Timestep
  6,                                      !- Hour 1
  0,                                      !- Minute 1
  1,                                      !- Value Until Time 1
  24,                                     !- Hour 2
  0,                                      !- Minute 2
  0;                                      !- Value Until Time 2

OS:Schedule:Day,
  {15643494-f049-4639-805b-fc7933d58258}, !- Handle
  Medium Office Lighting Summer Design Day Schedule 1, !- Name
  {aa3103ae-bf64-48e2-9ee8-fa65362a2879}, !- Schedule Type Limits Name
  ,                                       !- Interpolate to Timestep
  6,                                      !- Hour 1
  0,                                      !- Minute 1
  1,                                      !- Value Until Time 1
  24,                                     !- Hour 2
  0,                                      !- Minute 2
  0;                                      !- Value Until Time 2

OS:Schedule:Day,
  {ab3000a2-b303-44e9-a2c6-ee7e4cf8f51e}, !- Handle
  Medium Office Lighting Winter Design Day Schedule, !- Name
  ,                                       !- Schedule Type Limits Name
  ,                                       !- Interpolate to Timestep
  24,                                     !- Hour 1
  0,                                      !- Minute 1
  0;                                      !- Value Until Time 1

OS:Schedule:Day,
  {30a1ce90-258f-4918-9ee8-84f17b7f4af3}, !- Handle
  Medium Office Lighting Winter Design Day Schedule 1, !- Name
  {aa3103ae-bf64-48e2-9ee8-fa65362a2879}, !- Schedule Type Limits Name
  ,                                       !- Interpolate to Timestep
  24,                                     !- Hour 1
  0,                                      !- Minute 1
  0;                                      !- Value Until Time 1

OS:Schedule:Rule,
  {1185a63b-49a8-4433-ad83-b847270e6a8b}, !- Handle
  Medium Office Lighting Schedule Weekdays Rule, !- Name
  {a6a0763f-9980-4713-9486-1dadf2da23d3}, !- Schedule Ruleset Name
  1,                                      !- Rule Order
  {b58c83f2-1370-4e10-b007-e737f6af75ca}, !- Day Schedule Name
  ,                                       !- Apply Sunday
  Yes,                                    !- Apply Monday
  Yes,                                    !- Apply Tuesday
  Yes,                                    !- Apply Wednesday
  Yes,                                    !- Apply Thursday
  Yes;                                    !- Apply Friday

OS:Schedule:Day,
  {b58c83f2-1370-4e10-b007-e737f6af75ca}, !- Handle
  Medium Office Lighting Weekdays Schedule, !- Name
  {aa3103ae-bf64-48e2-9ee8-fa65362a2879}, !- Schedule Type Limits Name
  ,                                       !- Interpolate to Timestep
  5,                                      !- Hour 1
  0,                                      !- Minute 1
  0.05,                                   !- Value Until Time 1
  7,                                      !- Hour 2
  0,                                      !- Minute 2
  0.1,                                    !- Value Until Time 2
  8,                                      !- Hour 3
  0,                                      !- Minute 3
  0.3,                                    !- Value Until Time 3
  17,                                     !- Hour 4
  0,                                      !- Minute 4
  0.9,                                    !- Value Until Time 4
  18,                                     !- Hour 5
  0,                                      !- Minute 5
  0.7,                                    !- Value Until Time 5
  20,                                     !- Hour 6
  0,                                      !- Minute 6
  0.5,                                    !- Value Until Time 6
  22,                                     !- Hour 7
  0,                                      !- Minute 7
  0.3,                                    !- Value Until Time 7
  23,                                     !- Hour 8
  0,                                      !- Minute 8
  0.1,                                    !- Value Until Time 8
  24,                                     !- Hour 9
  0,                                      !- Minute 9
  0.05;                                   !- Value Until Time 9

OS:Schedule:Rule,
  {a63ae84e-88bb-4af1-800b-08ae0d190811}, !- Handle
  Medium Office Lighting Schedule Saturday Rule, !- Name
  {a6a0763f-9980-4713-9486-1dadf2da23d3}, !- Schedule Ruleset Name
  0,                                      !- Rule Order
  {a3c17000-4a4a-4702-bbb4-7397fc383b97}, !- Day Schedule Name
  ,                                       !- Apply Sunday
  ,                                       !- Apply Monday
  ,                                       !- Apply Tuesday
  ,                                       !- Apply Wednesday
  ,                                       !- Apply Thursday
  ,                                       !- Apply Friday
  Yes;                                    !- Apply Saturday

OS:Schedule:Day,
  {a3c17000-4a4a-4702-bbb4-7397fc383b97}, !- Handle
  Medium Office Lighting Saturday Schedule, !- Name
  {aa3103ae-bf64-48e2-9ee8-fa65362a2879}, !- Schedule Type Limits Name
  ,                                       !- Interpolate to Timestep
  6,                                      !- Hour 1
  0,                                      !- Minute 1
  0.05,                                   !- Value Until Time 1
  8,                                      !- Hour 2
  0,                                      !- Minute 2
  0.1,                                    !- Value Until Time 2
  14,                                     !- Hour 3
  0,                                      !- Minute 3
  0.5,                                    !- Value Until Time 3
  17,                                     !- Hour 4
  0,                                      !- Minute 4
  0.15,                                   !- Value Until Time 4
  24,                                     !- Hour 5
  0,                                      !- Minute 5
  0.05;                                   !- Value Until Time 5

OS:Schedule:Ruleset,
  {2cd0d70a-fbff-43aa-8554-ce842e3f694b}, !- Handle
  Medium Office Electric Equipment Schedule, !- Name
  {aa3103ae-bf64-48e2-9ee8-fa65362a2879}, !- Schedule Type Limits Name
  {6b0cfaa5-c9c3-4be0-9a89-c00ae253e91d}, !- Default Day Schedule Name
  {9ebc97d9-fc49-495f-accb-221651612d7c}, !- Summer Design Day Schedule Name
  {15c5da6e-e481-4d18-9ead-8dd9b2db1df4}; !- Winter Design Day Schedule Name

OS:Schedule:Day,
  {6b0cfaa5-c9c3-4be0-9a89-c00ae253e91d}, !- Handle
  Medium Office Electric Equipment All Other Days Schedule, !- Name
  {aa3103ae-bf64-48e2-9ee8-fa65362a2879}, !- Schedule Type Limits Name
  ,                                       !- Interpolate to Timestep
  24,                                     !- Hour 1
  0,                                      !- Minute 1
  0.3;                                    !- Value Until Time 1

OS:Schedule:Day,
  {65247174-2b99-4818-b3e6-0c667aa89867}, !- Handle
  Medium Office Electric Equipment Summer Design Day Schedule, !- Name
  ,                                       !- Schedule Type Limits Name
  ,                                       !- Interpolate to Timestep
  6,                                      !- Hour 1
  0,                                      !- Minute 1
  1,                                      !- Value Until Time 1
  24,                                     !- Hour 2
  0,                                      !- Minute 2
  0;                                      !- Value Until Time 2

OS:Schedule:Day,
  {9ebc97d9-fc49-495f-accb-221651612d7c}, !- Handle
  Medium Office Electric Equipment Summer Design Day Schedule 1, !- Name
  {aa3103ae-bf64-48e2-9ee8-fa65362a2879}, !- Schedule Type Limits Name
  ,                                       !- Interpolate to Timestep
  6,                                      !- Hour 1
  0,                                      !- Minute 1
  1,                                      !- Value Until Time 1
  24,                                     !- Hour 2
  0,                                      !- Minute 2
  0;                                      !- Value Until Time 2

OS:Schedule:Day,
  {314b9d9d-0366-4d08-9987-c4bf88b71e38}, !- Handle
  Medium Office Electric Equipment Winter Design Day Schedule, !- Name
  ,                                       !- Schedule Type Limits Name
  ,                                       !- Interpolate to Timestep
  24,                                     !- Hour 1
  0,                                      !- Minute 1
  0;                                      !- Value Until Time 1

OS:Schedule:Day,
  {15c5da6e-e481-4d18-9ead-8dd9b2db1df4}, !- Handle
  Medium Office Electric Equipment Winter Design Day Schedule 1, !- Name
  {aa3103ae-bf64-48e2-9ee8-fa65362a2879}, !- Schedule Type Limits Name
  ,                                       !- Interpolate to Timestep
  24,                                     !- Hour 1
  0,                                      !- Minute 1
  0;                                      !- Value Until Time 1

OS:Schedule:Rule,
  {d958e04d-5038-460b-b90e-bb054b440de9}, !- Handle
  Medium Office Electric Equipment Schedule Weekdays Rule, !- Name
  {2cd0d70a-fbff-43aa-8554-ce842e3f694b}, !- Schedule Ruleset Name
  1,                                      !- Rule Order
  {b1efe2bc-5792-4d90-add7-a1f1e5c7c212}, !- Day Schedule Name
  ,                                       !- Apply Sunday
  Yes,                                    !- Apply Monday
  Yes,                                    !- Apply Tuesday
  Yes,                                    !- Apply Wednesday
  Yes,                                    !- Apply Thursday
  Yes;                                    !- Apply Friday

OS:Schedule:Day,
  {b1efe2bc-5792-4d90-add7-a1f1e5c7c212}, !- Handle
  Medium Office Electric Equipment Weekdays Schedule, !- Name
  {aa3103ae-bf64-48e2-9ee8-fa65362a2879}, !- Schedule Type Limits Name
  ,                                       !- Interpolate to Timestep
  8,                                      !- Hour 1
  0,                                      !- Minute 1
  0.4,                                    !- Value Until Time 1
  12,                                     !- Hour 2
  0,                                      !- Minute 2
  0.9,                                    !- Value Until Time 2
  13,                                     !- Hour 3
  0,                                      !- Minute 3
  0.8,                                    !- Value Until Time 3
  17,                                     !- Hour 4
  0,                                      !- Minute 4
  0.9,                                    !- Value Until Time 4
  18,                                     !- Hour 5
  0,                                      !- Minute 5
  0.8,                                    !- Value Until Time 5
  20,                                     !- Hour 6
  0,                                      !- Minute 6
  0.6,                                    !- Value Until Time 6
  22,                                     !- Hour 7
  0,                                      !- Minute 7
  0.5,                                    !- Value Until Time 7
  24,                                     !- Hour 8
  0,                                      !- Minute 8
  0.4;                                    !- Value Until Time 8

OS:Schedule:Rule,
  {6ec66dfa-f2b0-45ea-8456-a3ff81463f01}, !- Handle
  Medium Office Electric Equipment Schedule Saturday Rule, !- Name
  {2cd0d70a-fbff-43aa-8554-ce842e3f694b}, !- Schedule Ruleset Name
  0,                                      !- Rule Order
  {ea110b28-c7b3-494d-84be-3770b941e0f9}, !- Day Schedule Name
  ,                                       !- Apply Sunday
  ,                                       !- Apply Monday
  ,                                       !- Apply Tuesday
  ,                                       !- Apply Wednesday
  ,                                       !- Apply Thursday