
Version,
  7.2.0.006;                              ! Version Identifier

UtilityCost:Tariff,
  ResidentialGeneral,                    !- Name
  ElectricityPurchased:Facility,          !- Output Meter Name
  kWh,                                    !- Conversion Factor Choice
  ,                                       !- Energy Conversion Factor
  ,                                       !- Demand Conversion Factor
  TimeOfDaySchedule,                      !- Time of Use Period Schedule Name
  TwoSeasonSchedule,                      !- Season Schedule Name
  ,                                       !- Month Schedule Name
  QuarterHour,                            !- Demand Window Length
  0.0;                                    !- Monthly Charge or Variable Name

UtilityCost:Charge:Block,
  ResidentialGeneralSummerEnergyBlockCharge, !- Name
  ResidentialGeneral,                    !- Tariff Name
  totalEnergy,                            !- Source Variable
  summer,                                 !- Season
  EnergyCharges,                          !- Category Variable Name
  ,                                       !- Remaining Into Variable
  ,                                       !- Block Size Multiplier Value or Variable Name
  500,                                    !- Block Size 1 Value or Variable Name
  0.04604,                                !- Block 1 Cost per Unit Value or Variable Name
  remaining,                              !- Block Size 2 Value or Variable Name
  0.09;                                   !- Block 2 Cost per Unit Value or Variable Name

UtilityCost:Charge:Simple,
  ResidentialGeneralWinterEnergyCharge,  !- Name
  ResidentialGeneral,                    !- Tariff Name
  totalEnergy,                            !- Source Variable
  winter,                                 !- Season
  EnergyCharges,                          !- Category Variable Name
  0.04604;                                !- Cost per Unit Value or Variable Name

